/*--------------------------------*- C++ -*----------------------------------*\
| =========                 |                                                 |
| \\      /  F ield         | OpenFOAM: The Open Source CFD Toolbox           |
|  \\    /   O peration     | Version:  2412                                  |
|   \\  /    A nd           | Website:  www.openfoam.com                      |
|    \\/     M anipulation  |                                                 |
\*---------------------------------------------------------------------------*/
FoamFile
{
    version     2.0;
    format      ascii;
    arch        "LSB;label=32;scalar=64";
    class       polyBoundaryMesh;
    location    "constant/polyMesh";
    object      boundary;
}
// * * * * * * * * * * * * * * * * * * * * * * * * * * * * * * * * * * * * * //

7
(
    inlet
    {
        type            patch;
        nFaces          80;
        startFace       128185;
    }
    outlet
    {
        type            patch;
        nFaces          0;
        startFace       128265;
    }
    topAndBottom
    {
        type            patch;
        nFaces          135;
        startFace       128265;
    }
    airfoil
    {
        type            wall;
        inGroups        1(wall);
        nFaces          213;
        startFace       128400;
    }
    defaultFaces
    {
        type            empty;
        inGroups        1(empty);
        nFaces          128700;
        startFace       128613;
    }
    procBoundary0to1
    {
        type            processor;
        inGroups        1(processor);
        nFaces          300;
        startFace       257313;
        matchTolerance  0.0001;
        transform       unknown;
        myProcNo        0;
        neighbProcNo    1;
    }
    procBoundary0to2
    {
        type            processor;
        inGroups        1(processor);
        nFaces          302;
        startFace       257613;
        matchTolerance  0.0001;
        transform       unknown;
        myProcNo        0;
        neighbProcNo    2;
    }
)

// ************************************************************************* //
