/*--------------------------------*- C++ -*----------------------------------*\ 
| =========                 |                                                 | 
| \\      /  F ield         | OpenFOAM: The Open Source CFD Toolbox           | 
|  \\    /   O peration     | Version:  2.1.0                                 | 
|   \\  /    A nd           | Web:      www.OpenFOAM.com                      | 
|    \\/     M anipulation  |                                                 | 
\*---------------------------------------------------------------------------*/ 
FoamFile                                                                        
{                                                                               
    version     2.0;                                                            
    format      ascii;                                                          
    class       dictionary;                                                     
    object      blockMeshDict;                                                  
}                                                                               
// * * * * * * * * * * * * * * * * * * * * * * * * * * * * * * * * * * * * * // 

convertToMeters 1.000000; 

vertices 
( 
    (-0.113085 0.001000 0.011346)
    (0.036347 0.001000 0.150000)
    (0.119400 0.001000 0.150000)
    (0.400000 0.001000 0.150000)
    (0.000000 0.001000 0.000000)
    (0.036347 0.001000 0.003590)
    (0.034909 0.001000 -0.010740)
    (0.119400 0.001000 -0.011980)
    (0.400000 0.001000 -0.011980)
    (0.034909 0.001000 -0.150000)
    (0.119400 0.001000 -0.150000)
    (0.400000 0.001000 -0.150000)
    (-0.113085 -0.001000 0.011346)
    (0.036347 -0.001000 0.150000)
    (0.119400 -0.001000 0.150000)
    (0.400000 -0.001000 0.150000)
    (0.000000 -0.001000 0.000000)
    (0.036347 -0.001000 0.003590)
    (0.034909 -0.001000 -0.010740)
    (0.119400 -0.001000 -0.011980)
    (0.400000 -0.001000 -0.011980)
    (0.034909 -0.001000 -0.150000)
    (0.119400 -0.001000 -0.150000)
    (0.400000 -0.001000 -0.150000)
); 

blocks 
( 
    hex (4 5 1 0 16 17 13 12)     (80 300 1) edgeGrading (1 1 1 1 1.000000 1.000000 1.000000 1.000000 1 1 1 1) 
    hex (5 7 2 1 17 19 14 13)     (189 300 1) simpleGrading (1 1.000000 1) 
    hex (7 8 3 2 19 20 15 14)     (160 300 1) simpleGrading (1.000000 1.000000 1) 
    hex (16 18 21 12 4 6 9 0)     (80 300 1) edgeGrading (1 1 1 1 1.000000 1.000000 1.000000 1.000000 1 1 1 1) 
    hex (18 19 22 21 6 7 10 9)    (189 300 1) simpleGrading (1 1.000000 1) 
    hex (19 20 23 22 7 8 11 10)   (160 300 1) simpleGrading (1.000000 1.000000 1) 
); 

edges 
( 
    spline 4 5 
        ( 
            (0.000014 0.001000 0.000111) 
            (0.000036 0.001000 0.000221) 
            (0.000063 0.001000 0.000330) 
            (0.000097 0.001000 0.000438) 
            (0.000138 0.001000 0.000544) 
            (0.000185 0.001000 0.000649) 
            (0.000239 0.001000 0.000754) 
            (0.000299 0.001000 0.000857) 
            (0.000366 0.001000 0.000958) 
            (0.000439 0.001000 0.001059) 
            (0.000519 0.001000 0.001158) 
            (0.000605 0.001000 0.001256) 
            (0.000697 0.001000 0.001353) 
            (0.000797 0.001000 0.001449) 
            (0.000902 0.001000 0.001543) 
            (0.001014 0.001000 0.001636) 
            (0.001133 0.001000 0.001728) 
            (0.001258 0.001000 0.001819) 
            (0.001389 0.001000 0.001909) 
            (0.001527 0.001000 0.001997) 
            (0.001671 0.001000 0.002084) 
            (0.001821 0.001000 0.002169) 
            (0.001978 0.001000 0.002253) 
            (0.002142 0.001000 0.002336) 
            (0.002311 0.001000 0.002418) 
            (0.002487 0.001000 0.002498) 
            (0.002669 0.001000 0.002577) 
            (0.002857 0.001000 0.002655) 
            (0.003052 0.001000 0.002731) 
            (0.003252 0.001000 0.002806) 
            (0.003459 0.001000 0.002879) 
            (0.003673 0.001000 0.002952) 
            (0.003892 0.001000 0.003022) 
            (0.004117 0.001000 0.003091) 
            (0.004349 0.001000 0.003159) 
            (0.004586 0.001000 0.003226) 
            (0.004830 0.001000 0.003291) 
            (0.005079 0.001000 0.003354) 
            (0.005335 0.001000 0.003416) 
            (0.005597 0.001000 0.003477) 
            (0.005864 0.001000 0.003536) 
            (0.006137 0.001000 0.003593) 
            (0.006417 0.001000 0.003649) 
            (0.006702 0.001000 0.003704) 
            (0.006993 0.001000 0.003757) 
            (0.007289 0.001000 0.003808) 
            (0.007592 0.001000 0.003858) 
            (0.007900 0.001000 0.003906) 
            (0.008213 0.001000 0.003953) 
            (0.008533 0.001000 0.003998) 
            (0.008858 0.001000 0.004042) 
            (0.009188 0.001000 0.004084) 
            (0.009525 0.001000 0.004124) 
            (0.009866 0.001000 0.004163) 
            (0.010213 0.001000 0.004200) 
            (0.010566 0.001000 0.004235) 
            (0.010923 0.001000 0.004269) 
            (0.011286 0.001000 0.004301) 
            (0.011655 0.001000 0.004331) 
            (0.012029 0.001000 0.004360) 
            (0.012407 0.001000 0.004387) 
            (0.012791 0.001000 0.004412) 
            (0.013181 0.001000 0.004436) 
            (0.013575 0.001000 0.004458) 
            (0.013974 0.001000 0.004478) 
            (0.014378 0.001000 0.004496) 
            (0.014788 0.001000 0.004513) 
            (0.015202 0.001000 0.004528) 
            (0.015621 0.001000 0.004541) 
            (0.016045 0.001000 0.004553) 
            (0.016473 0.001000 0.004563) 
            (0.016906 0.001000 0.004571) 
            (0.017344 0.001000 0.004577) 
            (0.017787 0.001000 0.004581) 
            (0.018234 0.001000 0.004584) 
            (0.018686 0.001000 0.004585) 
            (0.019142 0.001000 0.004584) 
            (0.019602 0.001000 0.004582) 
            (0.020067 0.001000 0.004578) 
            (0.020536 0.001000 0.004572) 
            (0.021010 0.001000 0.004564) 
            (0.021487 0.001000 0.004554) 
            (0.021969 0.001000 0.004543) 
            (0.022455 0.001000 0.004530) 
            (0.022945 0.001000 0.004515) 
            (0.023439 0.001000 0.004498) 
            (0.023937 0.001000 0.004480) 
            (0.024439 0.001000 0.004460) 
            (0.024945 0.001000 0.004438) 
            (0.025454 0.001000 0.004414) 
            (0.025967 0.001000 0.004389) 
            (0.026484 0.001000 0.004362) 
            (0.027004 0.001000 0.004333) 
            (0.027528 0.001000 0.004303) 
            (0.028056 0.001000 0.004271) 
            (0.028587 0.001000 0.004237) 
            (0.029121 0.001000 0.004201) 
            (0.029659 0.001000 0.004164) 
            (0.030199 0.001000 0.004125) 
            (0.030744 0.001000 0.004085) 
            (0.031291 0.001000 0.004042) 
            (0.031841 0.001000 0.003999) 
            (0.032394 0.001000 0.003953) 
            (0.032951 0.001000 0.003906) 
            (0.033510 0.001000 0.003857) 
            (0.034072 0.001000 0.003807) 
            (0.034637 0.001000 0.003755) 
            (0.035204 0.001000 0.003702) 
            (0.035774 0.001000 0.003647) 
        ) 
    spline 5 7 
        ( 
            (0.036922 0.001000 0.003532)
            (0.037500 0.001000 0.003472)
            (0.038080 0.001000 0.003411)
            (0.038663 0.001000 0.003349)
            (0.039248 0.001000 0.003285)
            (0.039835 0.001000 0.003219)
            (0.040424 0.001000 0.003153)
            (0.041015 0.001000 0.003084)
            (0.041608 0.001000 0.003015)
            (0.042204 0.001000 0.002944)
            (0.042801 0.001000 0.002871)
            (0.043400 0.001000 0.002797)
            (0.044000 0.001000 0.002722)
            (0.044603 0.001000 0.002646)
            (0.045207 0.001000 0.002568)
            (0.045813 0.001000 0.002489)
            (0.046420 0.001000 0.002409)
            (0.047028 0.001000 0.002328)
            (0.047638 0.001000 0.002245)
            (0.048249 0.001000 0.002161)
            (0.048862 0.001000 0.002076)
            (0.049476 0.001000 0.001990)
            (0.050090 0.001000 0.001903)
            (0.050706 0.001000 0.001815)
            (0.051323 0.001000 0.001725)
            (0.051941 0.001000 0.001635)
            (0.052559 0.001000 0.001544)
            (0.053178 0.001000 0.001451)
            (0.053798 0.001000 0.001358)
            (0.054419 0.001000 0.001263)
            (0.055040 0.001000 0.001168)
            (0.055662 0.001000 0.001071)
            (0.056284 0.001000 0.000974)
            (0.056906 0.001000 0.000876)
            (0.057529 0.001000 0.000777)
            (0.058152 0.001000 0.000677)
            (0.058775 0.001000 0.000577)
            (0.059399 0.001000 0.000475)
            (0.060022 0.001000 0.000373)
            (0.060645 0.001000 0.000270)
            (0.061268 0.001000 0.000166)
            (0.061891 0.001000 0.000062)
            (0.062514 0.001000 -0.000043)
            (0.063136 0.001000 -0.000149)
            (0.063758 0.001000 -0.000255)
            (0.064380 0.001000 -0.000362)
            (0.065001 0.001000 -0.000469)
            (0.065622 0.001000 -0.000577)
            (0.066242 0.001000 -0.000686)
            (0.066861 0.001000 -0.000795)
            (0.067479 0.001000 -0.000905)
            (0.068097 0.001000 -0.001015)
            (0.068713 0.001000 -0.001125)
            (0.069329 0.001000 -0.001236)
            (0.069943 0.001000 -0.001348)
            (0.070557 0.001000 -0.001459)
            (0.071169 0.001000 -0.001571)
            (0.071780 0.001000 -0.001684)
            (0.072390 0.001000 -0.001797)
            (0.072998 0.001000 -0.001910)
            (0.073605 0.001000 -0.002023)
            (0.074210 0.001000 -0.002137)
            (0.074814 0.001000 -0.002251)
            (0.075416 0.001000 -0.002365)
            (0.076016 0.001000 -0.002479)
            (0.076615 0.001000 -0.002593)
            (0.077212 0.001000 -0.002708)
            (0.077807 0.001000 -0.002822)
            (0.078399 0.001000 -0.002937)
            (0.078990 0.001000 -0.003052)
            (0.079579 0.001000 -0.003167)
            (0.080166 0.001000 -0.003282)
            (0.080750 0.001000 -0.003397)
            (0.081332 0.001000 -0.003512)
            (0.081912 0.001000 -0.003627)
            (0.082489 0.001000 -0.003742)
            (0.083064 0.001000 -0.003856)
            (0.083636 0.001000 -0.003971)
            (0.084206 0.001000 -0.004086)
            (0.084773 0.001000 -0.004200)
            (0.085337 0.001000 -0.004315)
            (0.085898 0.001000 -0.004429)
            (0.086457 0.001000 -0.004543)
            (0.087012 0.001000 -0.004657)
            (0.087565 0.001000 -0.004770)
            (0.088115 0.001000 -0.004883)
            (0.088661 0.001000 -0.004997)
            (0.089205 0.001000 -0.005109)
            (0.089745 0.001000 -0.005222)
            (0.090282 0.001000 -0.005334)
            (0.090815 0.001000 -0.005446)
            (0.091345 0.001000 -0.005557)
            (0.091872 0.001000 -0.005668)
            (0.092395 0.001000 -0.005779)
            (0.092915 0.001000 -0.005889)
            (0.093431 0.001000 -0.005999)
            (0.093943 0.001000 -0.006108)
            (0.094452 0.001000 -0.006217)
            (0.094957 0.001000 -0.006326)
            (0.095458 0.001000 -0.006434)
            (0.095955 0.001000 -0.006541)
            (0.096448 0.001000 -0.006648)
            (0.096937 0.001000 -0.006754)
            (0.097422 0.001000 -0.006860)
            (0.097903 0.001000 -0.006965)
            (0.098380 0.001000 -0.007069)
            (0.098852 0.001000 -0.007173)
            (0.099321 0.001000 -0.007276)
            (0.099785 0.001000 -0.007379)
            (0.100244 0.001000 -0.007480)
            (0.100699 0.001000 -0.007581)
            (0.101150 0.001000 -0.007682)
            (0.101596 0.001000 -0.007781)
            (0.102038 0.001000 -0.007880)
            (0.102475 0.001000 -0.007978)
            (0.102907 0.001000 -0.008075)
            (0.103335 0.001000 -0.008172)
            (0.103758 0.001000 -0.008267)
            (0.104176 0.001000 -0.008362)
            (0.104589 0.001000 -0.008456)
            (0.104997 0.001000 -0.008549)
            (0.105401 0.001000 -0.008641)
            (0.105799 0.001000 -0.008732)
            (0.106192 0.001000 -0.008822)
            (0.106581 0.001000 -0.008911)
            (0.106964 0.001000 -0.009000)
            (0.107342 0.001000 -0.009087)
            (0.107715 0.001000 -0.009173)
            (0.108082 0.001000 -0.009258)
            (0.108445 0.001000 -0.009343)
            (0.108802 0.001000 -0.009426)
            (0.109154 0.001000 -0.009508)
            (0.109500 0.001000 -0.009589)
            (0.109841 0.001000 -0.009669)
            (0.110176 0.001000 -0.009747)
            (0.110506 0.001000 -0.009825)
            (0.110830 0.001000 -0.009902)
            (0.111149 0.001000 -0.009977)
            (0.111462 0.001000 -0.010051)
            (0.111770 0.001000 -0.010124)
            (0.112072 0.001000 -0.010196)
            (0.112368 0.001000 -0.010266)
            (0.112658 0.001000 -0.010336)
            (0.112943 0.001000 -0.010404)
            (0.113222 0.001000 -0.010470)
            (0.113495 0.001000 -0.010536)
            (0.113762 0.001000 -0.010600)
            (0.114023 0.001000 -0.010663)
            (0.114279 0.001000 -0.010724)
            (0.114528 0.001000 -0.010784)
            (0.114772 0.001000 -0.010843)
            (0.115009 0.001000 -0.010901)
            (0.115241 0.001000 -0.010957)
            (0.115466 0.001000 -0.011012)
            (0.115685 0.001000 -0.011065)
            (0.115898 0.001000 -0.011117)
            (0.116106 0.001000 -0.011167)
            (0.116307 0.001000 -0.011216)
            (0.116501 0.001000 -0.011264)
            (0.116690 0.001000 -0.011310)
            (0.116872 0.001000 -0.011355)
            (0.117049 0.001000 -0.011398)
            (0.117219 0.001000 -0.011440)
            (0.117382 0.001000 -0.011480)
            (0.117540 0.001000 -0.011519)
            (0.117691 0.001000 -0.011556)
            (0.117836 0.001000 -0.011592)
            (0.117974 0.001000 -0.011626)
            (0.118106 0.001000 -0.011659)
            (0.118232 0.001000 -0.011690)
            (0.118351 0.001000 -0.011719)
            (0.118464 0.001000 -0.011747)
            (0.118571 0.001000 -0.011774)
            (0.118671 0.001000 -0.011799)
            (0.118765 0.001000 -0.011822)
            (0.118853 0.001000 -0.011844)
            (0.118933 0.001000 -0.011864)
            (0.119008 0.001000 -0.011882)
            (0.119076 0.001000 -0.011899)
            (0.119138 0.001000 -0.011915)
            (0.119193 0.001000 -0.011928)
            (0.119241 0.001000 -0.011940)
            (0.119284 0.001000 -0.011951)
            (0.119319 0.001000 -0.011960)
            (0.119349 0.001000 -0.011967)
            (0.119371 0.001000 -0.011973)
            (0.119388 0.001000 -0.011977)
            (0.119397 0.001000 -0.011979)
        ) 
    spline 4 6 
        ( 
            (-0.000008 0.001000 -0.000112)
            (-0.000009 0.001000 -0.000224)
            (-0.000004 0.001000 -0.000336)
            (0.000008 0.001000 -0.000448)
            (0.000027 0.001000 -0.000561)
            (0.000052 0.001000 -0.000673)
            (0.000084 0.001000 -0.000786)
            (0.000123 0.001000 -0.000899)
            (0.000168 0.001000 -0.001012)
            (0.000220 0.001000 -0.001125)
            (0.000278 0.001000 -0.001238)
            (0.000343 0.001000 -0.001351)
            (0.000415 0.001000 -0.001465)
            (0.000493 0.001000 -0.001578)
            (0.000578 0.001000 -0.001692)
            (0.000669 0.001000 -0.001805)
            (0.000767 0.001000 -0.001919)
            (0.000871 0.001000 -0.002033)
            (0.000982 0.001000 -0.002146)
            (0.001100 0.001000 -0.002260)
            (0.001224 0.001000 -0.002374)
            (0.001354 0.001000 -0.002488)
            (0.001491 0.001000 -0.002601)
            (0.001635 0.001000 -0.002715)
            (0.001785 0.001000 -0.002829)
            (0.001941 0.001000 -0.002942)
            (0.002104 0.001000 -0.003056)
            (0.002273 0.001000 -0.003170)
            (0.002448 0.001000 -0.003283)
            (0.002630 0.001000 -0.003396)
            (0.002818 0.001000 -0.003509)
            (0.003013 0.001000 -0.003622)
            (0.003214 0.001000 -0.003735)
            (0.003421 0.001000 -0.003848)
            (0.003634 0.001000 -0.003960)
            (0.003854 0.001000 -0.004073)
            (0.004080 0.001000 -0.004185)
            (0.004312 0.001000 -0.004296)
            (0.004550 0.001000 -0.004408)
            (0.004794 0.001000 -0.004519)
            (0.005045 0.001000 -0.004630)
            (0.005301 0.001000 -0.004741)
            (0.005564 0.001000 -0.004851)
            (0.005832 0.001000 -0.004961)
            (0.006107 0.001000 -0.005071)
            (0.006387 0.001000 -0.005181)
            (0.006674 0.001000 -0.005289)
            (0.006966 0.001000 -0.005398)
            (0.007264 0.001000 -0.005506)
            (0.007568 0.001000 -0.005614)
            (0.007878 0.001000 -0.005721)
            (0.008194 0.001000 -0.005828)
            (0.008515 0.001000 -0.005934)
            (0.008842 0.001000 -0.006040)
            (0.009175 0.001000 -0.006145)
            (0.009514 0.001000 -0.006250)
            (0.009858 0.001000 -0.006354)
            (0.010207 0.001000 -0.006457)
            (0.010562 0.001000 -0.006560)
            (0.010923 0.001000 -0.006663)
            (0.011289 0.001000 -0.006764)
            (0.011660 0.001000 -0.006866)
            (0.012037 0.001000 -0.006966)
            (0.012419 0.001000 -0.007066)
            (0.012806 0.001000 -0.007165)
            (0.013199 0.001000 -0.007263)
            (0.013596 0.001000 -0.007361)
            (0.013999 0.001000 -0.007458)
            (0.014407 0.001000 -0.007554)
            (0.014820 0.001000 -0.007650)
            (0.015238 0.001000 -0.007744)
            (0.015661 0.001000 -0.007838)
            (0.016089 0.001000 -0.007931)
            (0.016522 0.001000 -0.008024)
            (0.016960 0.001000 -0.008115)
            (0.017402 0.001000 -0.008206)
            (0.017849 0.001000 -0.008296)
            (0.018301 0.001000 -0.008385)
            (0.018758 0.001000 -0.008473)
            (0.019219 0.001000 -0.008560)
            (0.019684 0.001000 -0.008647)
            (0.020154 0.001000 -0.008732)
            (0.020629 0.001000 -0.008817)
            (0.021108 0.001000 -0.008901)
            (0.021591 0.001000 -0.008983)
            (0.022078 0.001000 -0.009065)
            (0.022570 0.001000 -0.009146)
            (0.023066 0.001000 -0.009226)
            (0.023566 0.001000 -0.009305)
            (0.024070 0.001000 -0.009383)
            (0.024577 0.001000 -0.009460)
            (0.025089 0.001000 -0.009537)
            (0.025605 0.001000 -0.009612)
            (0.026125 0.001000 -0.009686)
            (0.026648 0.001000 -0.009759)
            (0.027175 0.001000 -0.009832)
            (0.027706 0.001000 -0.009903)
            (0.028240 0.001000 -0.009973)
            (0.028778 0.001000 -0.010043)
            (0.029319 0.001000 -0.010111)
            (0.029864 0.001000 -0.010178)
            (0.030412 0.001000 -0.010245)
            (0.030963 0.001000 -0.010310)
            (0.031518 0.001000 -0.010374)
            (0.032076 0.001000 -0.010438)
            (0.032636 0.001000 -0.010500)
            (0.033200 0.001000 -0.010561)
            (0.033767 0.001000 -0.010622)
            (0.034337 0.001000 -0.010681)
        ) 
    spline 6 7 
        ( 
            (0.035485 0.001000 -0.010797)
            (0.036063 0.001000 -0.010853)
            (0.036644 0.001000 -0.010909)
            (0.037227 0.001000 -0.010963)
            (0.037813 0.001000 -0.011017)
            (0.038401 0.001000 -0.011069)
            (0.038992 0.001000 -0.011121)
            (0.039585 0.001000 -0.011171)
            (0.040180 0.001000 -0.011221)
            (0.040778 0.001000 -0.011269)
            (0.041377 0.001000 -0.011317)
            (0.041979 0.001000 -0.011364)
            (0.042583 0.001000 -0.011410)
            (0.043188 0.001000 -0.011454)
            (0.043796 0.001000 -0.011498)
            (0.044405 0.001000 -0.011541)
            (0.045016 0.001000 -0.011583)
            (0.045628 0.001000 -0.011624)
            (0.046243 0.001000 -0.011665)
            (0.046858 0.001000 -0.011704)
            (0.047475 0.001000 -0.011742)
            (0.048094 0.001000 -0.011780)
            (0.048714 0.001000 -0.011817)
            (0.049335 0.001000 -0.011852)
            (0.049957 0.001000 -0.011887)
            (0.050580 0.001000 -0.011921)
            (0.051205 0.001000 -0.011955)
            (0.051830 0.001000 -0.011987)
            (0.052456 0.001000 -0.012019)
            (0.053083 0.001000 -0.012049)
            (0.053711 0.001000 -0.012079)
            (0.054339 0.001000 -0.012108)
            (0.054968 0.001000 -0.012137)
            (0.055598 0.001000 -0.012164)
            (0.056228 0.001000 -0.012191)
            (0.056858 0.001000 -0.012217)
            (0.057489 0.001000 -0.012242)
            (0.058120 0.001000 -0.012266)
            (0.058751 0.001000 -0.012290)
            (0.059383 0.001000 -0.012313)
            (0.060014 0.001000 -0.012335)
            (0.060645 0.001000 -0.012357)
            (0.061276 0.001000 -0.012378)
            (0.061907 0.001000 -0.012398)
            (0.062538 0.001000 -0.012417)
            (0.063169 0.001000 -0.012436)
            (0.063799 0.001000 -0.012454)
            (0.064428 0.001000 -0.012471)
            (0.065057 0.001000 -0.012488)
            (0.065686 0.001000 -0.012504)
            (0.066314 0.001000 -0.012519)
            (0.066941 0.001000 -0.012534)
            (0.067567 0.001000 -0.012548)
            (0.068192 0.001000 -0.012562)
            (0.068817 0.001000 -0.012575)
            (0.069440 0.001000 -0.012587)
            (0.070063 0.001000 -0.012599)
            (0.070684 0.001000 -0.012610)
            (0.071304 0.001000 -0.012621)
            (0.071922 0.001000 -0.012631)
            (0.072540 0.001000 -0.012640)
            (0.073155 0.001000 -0.012649)
            (0.073770 0.001000 -0.012658)
            (0.074382 0.001000 -0.012665)
            (0.074994 0.001000 -0.012673)
            (0.075603 0.001000 -0.012680)
            (0.076211 0.001000 -0.012686)
            (0.076816 0.001000 -0.012692)
            (0.077420 0.001000 -0.012697)
            (0.078022 0.001000 -0.012702)
            (0.078622 0.001000 -0.012706)
            (0.079220 0.001000 -0.012710)
            (0.079815 0.001000 -0.012713)
            (0.080408 0.001000 -0.012716)
            (0.080999 0.001000 -0.012719)
            (0.081588 0.001000 -0.012721)
            (0.082174 0.001000 -0.012723)
            (0.082758 0.001000 -0.012724)
            (0.083339 0.001000 -0.012725)
            (0.083917 0.001000 -0.012725)
            (0.084493 0.001000 -0.012725)
            (0.085066 0.001000 -0.012725)
            (0.085636 0.001000 -0.012724)
            (0.086203 0.001000 -0.012723)
            (0.086767 0.001000 -0.012721)
            (0.087329 0.001000 -0.012720)
            (0.087887 0.001000 -0.012717)
            (0.088442 0.001000 -0.012715)
            (0.088993 0.001000 -0.012712)
            (0.089542 0.001000 -0.012709)
            (0.090087 0.001000 -0.012705)
            (0.090629 0.001000 -0.012701)
            (0.091167 0.001000 -0.012697)
            (0.091702 0.001000 -0.012692)
            (0.092233 0.001000 -0.012688)
            (0.092760 0.001000 -0.012682)
            (0.093284 0.001000 -0.012677)
            (0.093804 0.001000 -0.012671)
            (0.094321 0.001000 -0.012665)
            (0.094833 0.001000 -0.012659)
            (0.095342 0.001000 -0.012653)
            (0.095846 0.001000 -0.012646)
            (0.096347 0.001000 -0.012639)
            (0.096843 0.001000 -0.012632)
            (0.097335 0.001000 -0.012624)
            (0.097823 0.001000 -0.012617)
            (0.098307 0.001000 -0.012609)
            (0.098786 0.001000 -0.012601)
            (0.099261 0.001000 -0.012593)
            (0.099732 0.001000 -0.012584)
            (0.100198 0.001000 -0.012576)
            (0.100660 0.001000 -0.012567)
            (0.101117 0.001000 -0.012558)
            (0.101569 0.001000 -0.012549)
            (0.102017 0.001000 -0.012540)
            (0.102460 0.001000 -0.012530)
            (0.102898 0.001000 -0.012521)
            (0.103332 0.001000 -0.012511)
            (0.103760 0.001000 -0.012501)
            (0.104184 0.001000 -0.012491)
            (0.104603 0.001000 -0.012481)
            (0.105016 0.001000 -0.012471)
            (0.105425 0.001000 -0.012461)
            (0.105828 0.001000 -0.012451)
            (0.106227 0.001000 -0.012441)
            (0.106620 0.001000 -0.012430)
            (0.107008 0.001000 -0.012420)
            (0.107390 0.001000 -0.012409)
            (0.107767 0.001000 -0.012399)
            (0.108139 0.001000 -0.012388)
            (0.108506 0.001000 -0.012378)
            (0.108867 0.001000 -0.012367)
            (0.109222 0.001000 -0.012357)
            (0.109572 0.001000 -0.012346)
            (0.109916 0.001000 -0.012335)
            (0.110255 0.001000 -0.012325)
            (0.110588 0.001000 -0.012314)
            (0.110916 0.001000 -0.012304)
            (0.111237 0.001000 -0.012293)
            (0.111553 0.001000 -0.012283)
            (0.111863 0.001000 -0.012273)
            (0.112168 0.001000 -0.012262)
            (0.112466 0.001000 -0.012252)
            (0.112759 0.001000 -0.012242)
            (0.113045 0.001000 -0.012232)
            (0.113326 0.001000 -0.012222)
            (0.113600 0.001000 -0.012212)
            (0.113869 0.001000 -0.012203)
            (0.114131 0.001000 -0.012193)
            (0.114388 0.001000 -0.012184)
            (0.114638 0.001000 -0.012174)
            (0.114882 0.001000 -0.012165)
            (0.115120 0.001000 -0.012156)
            (0.115352 0.001000 -0.012147)
            (0.115578 0.001000 -0.012139)
            (0.115797 0.001000 -0.012130)
            (0.116010 0.001000 -0.012122)
            (0.116217 0.001000 -0.012114)
            (0.116417 0.001000 -0.012106)
            (0.116611 0.001000 -0.012098)
            (0.116799 0.001000 -0.012090)
            (0.116980 0.001000 -0.012083)
            (0.117155 0.001000 -0.012076)
            (0.117323 0.001000 -0.012069)
            (0.117485 0.001000 -0.012062)
            (0.117641 0.001000 -0.012056)
            (0.117790 0.001000 -0.012050)
            (0.117932 0.001000 -0.012044)
            (0.118068 0.001000 -0.012038)
            (0.118198 0.001000 -0.012032)
            (0.118321 0.001000 -0.012027)
            (0.118437 0.001000 -0.012022)
            (0.118547 0.001000 -0.012017)
            (0.118650 0.001000 -0.012013)
            (0.118746 0.001000 -0.012009)
            (0.118836 0.001000 -0.012005)
            (0.118920 0.001000 -0.012001)
            (0.118996 0.001000 -0.011998)
            (0.119066 0.001000 -0.011995)
            (0.119130 0.001000 -0.011992)
            (0.119187 0.001000 -0.011989)
            (0.119237 0.001000 -0.011987)
            (0.119280 0.001000 -0.011985)
            (0.119317 0.001000 -0.011984)
            (0.119347 0.001000 -0.011982)
            (0.119370 0.001000 -0.011981)
            (0.119387 0.001000 -0.011981)
            (0.119397 0.001000 -0.011980)
        ) 
    spline 16 17 
        ( 
            (0.000014 -0.001000 0.000111)
            (0.000036 -0.001000 0.000221)
            (0.000063 -0.001000 0.000330)
            (0.000097 -0.001000 0.000438)
            (0.000138 -0.001000 0.000544)
            (0.000185 -0.001000 0.000649)
            (0.000239 -0.001000 0.000754)
            (0.000299 -0.001000 0.000857)
            (0.000366 -0.001000 0.000958)
            (0.000439 -0.001000 0.001059)
            (0.000519 -0.001000 0.001158)
            (0.000605 -0.001000 0.001256)
            (0.000697 -0.001000 0.001353)
            (0.000797 -0.001000 0.001449)
            (0.000902 -0.001000 0.001543)
            (0.001014 -0.001000 0.001636)
            (0.001133 -0.001000 0.001728)
            (0.001258 -0.001000 0.001819)
            (0.001389 -0.001000 0.001909)
            (0.001527 -0.001000 0.001997)
            (0.001671 -0.001000 0.002084)
            (0.001821 -0.001000 0.002169)
            (0.001978 -0.001000 0.002253)
            (0.002142 -0.001000 0.002336)
            (0.002311 -0.001000 0.002418)
            (0.002487 -0.001000 0.002498)
            (0.002669 -0.001000 0.002577)
            (0.002857 -0.001000 0.002655)
            (0.003052 -0.001000 0.002731)
            (0.003252 -0.001000 0.002806)
            (0.003459 -0.001000 0.002879)
            (0.003673 -0.001000 0.002952)
            (0.003892 -0.001000 0.003022)
            (0.004117 -0.001000 0.003091)
            (0.004349 -0.001000 0.003159)
            (0.004586 -0.001000 0.003226)
            (0.004830 -0.001000 0.003291)
            (0.005079 -0.001000 0.003354)
            (0.005335 -0.001000 0.003416)
            (0.005597 -0.001000 0.003477)
            (0.005864 -0.001000 0.003536)
            (0.006137 -0.001000 0.003593)
            (0.006417 -0.001000 0.003649)
            (0.006702 -0.001000 0.003704)
            (0.006993 -0.001000 0.003757)
            (0.007289 -0.001000 0.003808)
            (0.007592 -0.001000 0.003858)
            (0.007900 -0.001000 0.003906)
            (0.008213 -0.001000 0.003953)
            (0.008533 -0.001000 0.003998)
            (0.008858 -0.001000 0.004042)
            (0.009188 -0.001000 0.004084)
            (0.009525 -0.001000 0.004124)