/*--------------------------------*- C++ -*----------------------------------*\
| =========                 |                                                 |
| \\      /  F ield         | OpenFOAM: The Open Source CFD Toolbox           |
|  \\    /   O peration     | Version:  2406                                  |
|   \\  /    A nd           | Website:  www.openfoam.com                      |
|    \\/     M anipulation  |                                                 |
\*---------------------------------------------------------------------------*/
FoamFile
{
    version     2.0;
    format      ascii;
    arch        "LSB;label=32;scalar=64";
    class       polyBoundaryMesh;
    location    "constant/polyMesh";
    object      boundary;
}
// * * * * * * * * * * * * * * * * * * * * * * * * * * * * * * * * * * * * * //

4
(
    inlet
    {
        type            cyclic;
        inGroups        1(cyclic);
        nFaces          100;
        startFace       59600;
        matchTolerance  0.0001;
        transform       unknown;
        neighbourPatch  outlet;
    }
    outlet
    {
        type            cyclic;
        inGroups        1(cyclic);
        nFaces          100;
        startFace       59700;
        matchTolerance  0.0001;
        transform       unknown;
        neighbourPatch  inlet;
    }
    fixedWalls
    {
        type            wall;
        inGroups        1(wall);
        nFaces          600;
        startFace       59800;
    }
    frontAndBack
    {
        type            empty;
        inGroups        1(empty);
        nFaces          60000;
        startFace       60400;
    }
)

// ************************************************************************* //
