/*--------------------------------*- C++ -*----------------------------------*\ 
| =========                 |                                                 | 
| \\      /  F ield         | OpenFOAM: The Open Source CFD Toolbox           | 
|  \\    /   O peration     | Version:  2.1.0                                 | 
|   \\  /    A nd           | Web:      www.OpenFOAM.com                      | 
|    \\/     M anipulation  |                                                 | 
\*---------------------------------------------------------------------------*/ 
FoamFile                                                                        
{                                                                               
    version     2.0;                                                            
    format      ascii;                                                          
    class       dictionary;                                                     
    object      blockMeshDict;                                                  
}                                                                               
// * * * * * * * * * * * * * * * * * * * * * * * * * * * * * * * * * * * * * // 

convertToMeters 1.000000; 

vertices 
( 
    (-0.114193 0.001000 0.000000)
    (0.035807 0.001000 0.150000)
    (0.120000 0.001000 0.150000)
    (0.400000 0.001000 0.150000)
    (0.000000 0.001000 0.000000)
    (0.035807 0.001000 0.007201)
    (0.035807 0.001000 -0.007201)
    (0.120000 0.001000 -0.000000)
    (0.400000 0.001000 -0.000000)
    (0.035807 0.001000 -0.150000)
    (0.120000 0.001000 -0.150000)
    (0.400000 0.001000 -0.150000)
    (-0.114193 -0.001000 0.000000)
    (0.035807 -0.001000 0.150000)
    (0.120000 -0.001000 0.150000)
    (0.400000 -0.001000 0.150000)
    (0.000000 -0.001000 0.000000)
    (0.035807 -0.001000 0.007201)
    (0.035807 -0.001000 -0.007201)
    (0.120000 -0.001000 -0.000000)
    (0.400000 -0.001000 -0.000000)
    (0.035807 -0.001000 -0.150000)
    (0.120000 -0.001000 -0.150000)
    (0.400000 -0.001000 -0.150000)
); 

blocks 
( 
    hex (4 5 1 0 16 17 13 12)     (80 300 1) edgeGrading (1 1 1 1 1 1.0 1.000000 1.000000 1 1 1 1) 
    hex (5 7 2 1 17 19 14 13)     (189 300 1) simpleGrading (1 1.000000 1) 
    hex (7 8 3 2 19 20 15 14)     (160 300 1) simpleGrading (1.000000 1.000000 1) 
    hex (16 18 21 12 4 6 9 0)     (80 300 1) edgeGrading (1 1 1 1 1.000000 1.000000 1.000000 1.000000 1 1 1 1) 
    hex (18 19 22 21 6 7 10 9)    (189 300 1) simpleGrading (1 1.000000 1) 
    hex (19 20 23 22 7 8 11 10)   (160 300 1) simpleGrading (1.000000 1.000000 1) 
); 

edges 
( 
    spline 4 5 
        ( 
            (0.000003 0.001000 0.000112) 
            (0.000013 0.001000 0.000224) 
            (0.000030 0.001000 0.000335) 
            (0.000053 0.001000 0.000445) 
            (0.000083 0.001000 0.000555) 
            (0.000119 0.001000 0.000665) 
            (0.000162 0.001000 0.000774) 
            (0.000212 0.001000 0.000882) 
            (0.000268 0.001000 0.000990) 
            (0.000331 0.001000 0.001097) 
            (0.000400 0.001000 0.001204) 
            (0.000476 0.001000 0.001310) 
            (0.000559 0.001000 0.001416) 
            (0.000648 0.001000 0.001521) 
            (0.000744 0.001000 0.001626) 
            (0.000846 0.001000 0.001730) 
            (0.000955 0.001000 0.001833) 
            (0.001070 0.001000 0.001936) 
            (0.001192 0.001000 0.002038) 
            (0.001320 0.001000 0.002139) 
            (0.001455 0.001000 0.002240) 
            (0.001596 0.001000 0.002340) 
            (0.001743 0.001000 0.002440) 
            (0.001898 0.001000 0.002538) 
            (0.002058 0.001000 0.002637) 
            (0.002225 0.001000 0.002734) 
            (0.002398 0.001000 0.002831) 
            (0.002578 0.001000 0.002927) 
            (0.002764 0.001000 0.003022) 
            (0.002956 0.001000 0.003117) 
            (0.003155 0.001000 0.003210) 
            (0.003360 0.001000 0.003303) 
            (0.003571 0.001000 0.003396) 
            (0.003788 0.001000 0.003487) 
            (0.004012 0.001000 0.003578) 
            (0.004241 0.001000 0.003667) 
            (0.004477 0.001000 0.003756) 
            (0.004719 0.001000 0.003845) 
            (0.004967 0.001000 0.003932) 
            (0.005222 0.001000 0.004018) 
            (0.005482 0.001000 0.004104) 
            (0.005748 0.001000 0.004188) 
            (0.006020 0.001000 0.004272) 
            (0.006298 0.001000 0.004354) 
            (0.006583 0.001000 0.004436) 
            (0.006873 0.001000 0.004517) 
            (0.007169 0.001000 0.004597) 
            (0.007470 0.001000 0.004676) 
            (0.007778 0.001000 0.004753) 
            (0.008091 0.001000 0.004830) 
            (0.008410 0.001000 0.004906) 
            (0.008735 0.001000 0.004981) 
            (0.009065 0.001000 0.005054) 
            (0.009401 0.001000 0.005127) 
            (0.009743 0.001000 0.005198) 
            (0.010090 0.001000 0.005269) 
            (0.010443 0.001000 0.005338) 
            (0.010801 0.001000 0.005406) 
            (0.011164 0.001000 0.005473) 
            (0.011533 0.001000 0.005539) 
            (0.011907 0.001000 0.005604) 
            (0.012287 0.001000 0.005667) 
            (0.012672 0.001000 0.005730) 
            (0.013062 0.001000 0.005791) 
            (0.013457 0.001000 0.005851) 
            (0.013858 0.001000 0.005909) 
            (0.014263 0.001000 0.005967) 
            (0.014674 0.001000 0.006023) 
            (0.015089 0.001000 0.006078) 
            (0.015510 0.001000 0.006132) 
            (0.015935 0.001000 0.006184) 
            (0.016366 0.001000 0.006236) 
            (0.016801 0.001000 0.006286) 
            (0.017241 0.001000 0.006334) 
            (0.017685 0.001000 0.006382) 
            (0.018134 0.001000 0.006428) 
            (0.018588 0.001000 0.006472) 
            (0.019047 0.001000 0.006516) 
            (0.019510 0.001000 0.006558) 
            (0.019977 0.001000 0.006599) 
            (0.020449 0.001000 0.006638) 
            (0.020925 0.001000 0.006677) 
            (0.021406 0.001000 0.006713) 
            (0.021891 0.001000 0.006749) 
            (0.022380 0.001000 0.006783) 
            (0.022873 0.001000 0.006816) 
            (0.023370 0.001000 0.006847) 
            (0.023872 0.001000 0.006877) 
            (0.024377 0.001000 0.006906) 
            (0.024886 0.001000 0.006934) 
            (0.025399 0.001000 0.006960) 
            (0.025916 0.001000 0.006984) 
            (0.026437 0.001000 0.007008) 
            (0.026961 0.001000 0.007030) 
            (0.027489 0.001000 0.007050) 
            (0.028021 0.001000 0.007070) 
            (0.028556 0.001000 0.007088) 
            (0.029095 0.001000 0.007104) 
            (0.029637 0.001000 0.007119) 
            (0.030182 0.001000 0.007133) 
            (0.030731 0.001000 0.007146) 
            (0.031283 0.001000 0.007157) 
            (0.031838 0.001000 0.007167) 
            (0.032396 0.001000 0.007176) 
            (0.032957 0.001000 0.007183) 
            (0.033522 0.001000 0.007189) 
            (0.034089 0.001000 0.007194) 
            (0.034659 0.001000 0.007198) 
            (0.035232 0.001000 0.007200) 
        ) 
    spline 5 7 
        ( 
            (0.036385 0.001000 0.007200)
            (0.036966 0.001000 0.007199)
            (0.037550 0.001000 0.007196)
            (0.038135 0.001000 0.007192)
            (0.038724 0.001000 0.007187)
            (0.039314 0.001000 0.007180)
            (0.039907 0.001000 0.007172)
            (0.040502 0.001000 0.007164)
            (0.041100 0.001000 0.007153)
            (0.041699 0.001000 0.007142)
            (0.042300 0.001000 0.007130)
            (0.042904 0.001000 0.007116)
            (0.043509 0.001000 0.007101)
            (0.044116 0.001000 0.007086)
            (0.044725 0.001000 0.007069)
            (0.045335 0.001000 0.007051)
            (0.045947 0.001000 0.007031)
            (0.046561 0.001000 0.007011)
            (0.047176 0.001000 0.006990)
            (0.047793 0.001000 0.006967)
            (0.048411 0.001000 0.006944)
            (0.049030 0.001000 0.006920)
            (0.049650 0.001000 0.006894)
            (0.050272 0.001000 0.006868)
            (0.050894 0.001000 0.006841)
            (0.051518 0.001000 0.006812)
            (0.052142 0.001000 0.006783)
            (0.052768 0.001000 0.006753)
            (0.053394 0.001000 0.006722)
            (0.054021 0.001000 0.006690)
            (0.054649 0.001000 0.006657)
            (0.055277 0.001000 0.006623)
            (0.055905 0.001000 0.006588)
            (0.056535 0.001000 0.006553)
            (0.057164 0.001000 0.006517)
            (0.057794 0.001000 0.006479)
            (0.058424 0.001000 0.006441)
            (0.059054 0.001000 0.006403)
            (0.059685 0.001000 0.006363)
            (0.060315 0.001000 0.006323)
            (0.060946 0.001000 0.006282)
            (0.061576 0.001000 0.006241)
            (0.062206 0.001000 0.006198)
            (0.062836 0.001000 0.006155)
            (0.063465 0.001000 0.006112)
            (0.064095 0.001000 0.006067)
            (0.064723 0.001000 0.006022)
            (0.065351 0.001000 0.005977)
            (0.065979 0.001000 0.005931)
            (0.066606 0.001000 0.005884)
            (0.067232 0.001000 0.005837)
            (0.067858 0.001000 0.005789)
            (0.068482 0.001000 0.005740)
            (0.069106 0.001000 0.005691)
            (0.069728 0.001000 0.005642)
            (0.070350 0.001000 0.005592)
            (0.070970 0.001000 0.005541)
            (0.071589 0.001000 0.005491)
            (0.072207 0.001000 0.005439)
            (0.072824 0.001000 0.005387)
            (0.073439 0.001000 0.005335)
            (0.074053 0.001000 0.005283)
            (0.074665 0.001000 0.005230)
            (0.075275 0.001000 0.005176)
            (0.075884 0.001000 0.005123)
            (0.076491 0.001000 0.005068)
            (0.077096 0.001000 0.005014)
            (0.077700 0.001000 0.004959)
            (0.078301 0.001000 0.004904)
            (0.078900 0.001000 0.004849)
            (0.079498 0.001000 0.004794)
            (0.080093 0.001000 0.004738)
            (0.080686 0.001000 0.004682)
            (0.081276 0.001000 0.004625)
            (0.081865 0.001000 0.004569)
            (0.082450 0.001000 0.004512)
            (0.083034 0.001000 0.004455)
            (0.083615 0.001000 0.004398)
            (0.084193 0.001000 0.004341)
            (0.084768 0.001000 0.004284)
            (0.085341 0.001000 0.004226)
            (0.085911 0.001000 0.004169)
            (0.086478 0.001000 0.004111)
            (0.087043 0.001000 0.004053)
            (0.087604 0.001000 0.003996)
            (0.088162 0.001000 0.003938)
            (0.088717 0.001000 0.003880)
            (0.089269 0.001000 0.003822)
            (0.089818 0.001000 0.003764)
            (0.090363 0.001000 0.003706)
            (0.090905 0.001000 0.003648)
            (0.091444 0.001000 0.003590)
            (0.091979 0.001000 0.003532)
            (0.092511 0.001000 0.003474)
            (0.093039 0.001000 0.003416)
            (0.093563 0.001000 0.003358)
            (0.094084 0.001000 0.003301)
            (0.094601 0.001000 0.003243)
            (0.095114 0.001000 0.003186)
            (0.095623 0.001000 0.003128)
            (0.096128 0.001000 0.003071)
            (0.096630 0.001000 0.003014)
            (0.097127 0.001000 0.002957)
            (0.097620 0.001000 0.002901)
            (0.098109 0.001000 0.002844)
            (0.098594 0.001000 0.002788)
            (0.099075 0.001000 0.002732)
            (0.099551 0.001000 0.002676)
            (0.100023 0.001000 0.002620)
            (0.100490 0.001000 0.002565)
            (0.100953 0.001000 0.002510)
            (0.101412 0.001000 0.002455)
            (0.101866 0.001000 0.002400)
            (0.102315 0.001000 0.002346)
            (0.102759 0.001000 0.002292)
            (0.103199 0.001000 0.002239)
            (0.103634 0.001000 0.002185)
            (0.104065 0.001000 0.002133)
            (0.104490 0.001000 0.002080)
            (0.104911 0.001000 0.002028)
            (0.105326 0.001000 0.001976)
            (0.105737 0.001000 0.001925)
            (0.106142 0.001000 0.001874)
            (0.106543 0.001000 0.001823)
            (0.106938 0.001000 0.001773)
            (0.107328 0.001000 0.001724)
            (0.107713 0.001000 0.001675)
            (0.108093 0.001000 0.001626)
            (0.108467 0.001000 0.001578)
            (0.108836 0.001000 0.001530)
            (0.109199 0.001000 0.001483)
            (0.109557 0.001000 0.001437)
            (0.109910 0.001000 0.001391)
            (0.110257 0.001000 0.001345)
            (0.110599 0.001000 0.001300)
            (0.110935 0.001000 0.001256)
            (0.111265 0.001000 0.001212)
            (0.111590 0.001000 0.001169)
            (0.111909 0.001000 0.001127)
            (0.112222 0.001000 0.001085)
            (0.112530 0.001000 0.001044)
            (0.112831 0.001000 0.001003)
            (0.113127 0.001000 0.000963)
            (0.113417 0.001000 0.000924)
            (0.113702 0.001000 0.000885)
            (0.113980 0.001000 0.000847)
            (0.114252 0.001000 0.000810)
            (0.114518 0.001000 0.000774)
            (0.114778 0.001000 0.000738)
            (0.115033 0.001000 0.000703)
            (0.115281 0.001000 0.000669)
            (0.115523 0.001000 0.000635)
            (0.115759 0.001000 0.000603)
            (0.115988 0.001000 0.000571)
            (0.116212 0.001000 0.000540)
            (0.116429 0.001000 0.000509)
            (0.116640 0.001000 0.000480)
            (0.116845 0.001000 0.000451)
            (0.117044 0.001000 0.000423)
            (0.117236 0.001000 0.000396)
            (0.117422 0.001000 0.000370)
            (0.117602 0.001000 0.000344)
            (0.117775 0.001000 0.000320)
            (0.117942 0.001000 0.000296)
            (0.118102 0.001000 0.000273)
            (0.118257 0.001000 0.000251)
            (0.118404 0.001000 0.000230)
            (0.118545 0.001000 0.000210)
            (0.118680 0.001000 0.000190)
            (0.118808 0.001000 0.000172)
            (0.118930 0.001000 0.000155)
            (0.119045 0.001000 0.000138)
            (0.119154 0.001000 0.000122)
            (0.119256 0.001000 0.000108)
            (0.119352 0.001000 0.000094)
            (0.119441 0.001000 0.000081)
            (0.119524 0.001000 0.000069)
            (0.119600 0.001000 0.000058)
            (0.119669 0.001000 0.000048)
            (0.119732 0.001000 0.000039)
            (0.119788 0.001000 0.000031)
            (0.119838 0.001000 0.000024)
            (0.119881 0.001000 0.000017)
            (0.119917 0.001000 0.000012)
            (0.119947 0.001000 0.000008)
            (0.119970 0.001000 0.000004)
            (0.119987 0.001000 0.000002)
            (0.119997 0.001000 0.000000)
        ) 
    spline 4 6 
        ( 
            (0.000003 0.001000 -0.000112)
            (0.000013 0.001000 -0.000224)
            (0.000030 0.001000 -0.000335)
            (0.000053 0.001000 -0.000445)
            (0.000083 0.001000 -0.000555)
            (0.000119 0.001000 -0.000665)
            (0.000162 0.001000 -0.000774)
            (0.000212 0.001000 -0.000882)
            (0.000268 0.001000 -0.000990)
            (0.000331 0.001000 -0.001097)
            (0.000400 0.001000 -0.001204)
            (0.000476 0.001000 -0.001310)
            (0.000559 0.001000 -0.001416)
            (0.000648 0.001000 -0.001521)
            (0.000744 0.001000 -0.001626)
            (0.000846 0.001000 -0.001730)
            (0.000955 0.001000 -0.001833)
            (0.001070 0.001000 -0.001936)
            (0.001192 0.001000 -0.002038)
            (0.001320 0.001000 -0.002139)
            (0.001455 0.001000 -0.002240)
            (0.001596 0.001000 -0.002340)
            (0.001743 0.001000 -0.002440)
            (0.001898 0.001000 -0.002538)
            (0.002058 0.001000 -0.002637)
            (0.002225 0.001000 -0.002734)
            (0.002398 0.001000 -0.002831)
            (0.002578 0.001000 -0.002927)
            (0.002764 0.001000 -0.003022)
            (0.002956 0.001000 -0.003117)
            (0.003155 0.001000 -0.003210)
            (0.003360 0.001000 -0.003303)
            (0.003571 0.001000 -0.003396)
            (0.003788 0.001000 -0.003487)
            (0.004012 0.001000 -0.003578)
            (0.004241 0.001000 -0.003667)
            (0.004477 0.001000 -0.003756)
            (0.004719 0.001000 -0.003845)
            (0.004967 0.001000 -0.003932)
            (0.005222 0.001000 -0.004018)
            (0.005482 0.001000 -0.004104)
            (0.005748 0.001000 -0.004188)
            (0.006020 0.001000 -0.004272)
            (0.006298 0.001000 -0.004354)
            (0.006583 0.001000 -0.004436)
            (0.006873 0.001000 -0.004517)
            (0.007169 0.001000 -0.004597)
            (0.007470 0.001000 -0.004676)
            (0.007778 0.001000 -0.004753)
            (0.008091 0.001000 -0.004830)
            (0.008410 0.001000 -0.004906)
            (0.008735 0.001000 -0.004981)
            (0.009065 0.001000 -0.005054)
            (0.009401 0.001000 -0.005127)
            (0.009743 0.001000 -0.005198)
            (0.010090 0.001000 -0.005269)
            (0.010443 0.001000 -0.005338)
            (0.010801 0.001000 -0.005406)
            (0.011164 0.001000 -0.005473)
            (0.011533 0.001000 -0.005539)
            (0.011907 0.001000 -0.005604)
            (0.012287 0.001000 -0.005667)
            (0.012672 0.001000 -0.005730)
            (0.013062 0.001000 -0.005791)
            (0.013457 0.001000 -0.005851)
            (0.013858 0.001000 -0.005909)
            (0.014263 0.001000 -0.005967)
            (0.014674 0.001000 -0.006023)
            (0.015089 0.001000 -0.006078)
            (0.015510 0.001000 -0.006132)
            (0.015935 0.001000 -0.006184)
            (0.016366 0.001000 -0.006236)
            (0.016801 0.001000 -0.006286)
            (0.017241 0.001000 -0.006334)
            (0.017685 0.001000 -0.006382)
            (0.018134 0.001000 -0.006428)
            (0.018588 0.001000 -0.006472)
            (0.019047 0.001000 -0.006516)
            (0.019510 0.001000 -0.006558)
            (0.019977 0.001000 -0.006599)
            (0.020449 0.001000 -0.006638)
            (0.020925 0.001000 -0.006677)
            (0.021406 0.001000 -0.006713)
            (0.021891 0.001000 -0.006749)
            (0.022380 0.001000 -0.006783)
            (0.022873 0.001000 -0.006816)
            (0.023370 0.001000 -0.006847)
            (0.023872 0.001000 -0.006877)
            (0.024377 0.001000 -0.006906)
            (0.024886 0.001000 -0.006934)
            (0.025399 0.001000 -0.006960)
            (0.025916 0.001000 -0.006984)
            (0.026437 0.001000 -0.007008)
            (0.026961 0.001000 -0.007030)
            (0.027489 0.001000 -0.007050)
            (0.028021 0.001000 -0.007070)
            (0.028556 0.001000 -0.007088)
            (0.029095 0.001000 -0.007104)
            (0.029637 0.001000 -0.007119)
            (0.030182 0.001000 -0.007133)
            (0.030731 0.001000 -0.007146)
            (0.031283 0.001000 -0.007157)
            (0.031838 0.001000 -0.007167)
            (0.032396 0.001000 -0.007176)
            (0.032957 0.001000 -0.007183)
            (0.033522 0.001000 -0.007189)
            (0.034089 0.001000 -0.007194)
            (0.034659 0.001000 -0.007198)
            (0.035232 0.001000 -0.007200)
        ) 
    spline 6 7 
        ( 
            (0.036385 0.001000 -0.007200)
            (0.036966 0.001000 -0.007199)
            (0.037550 0.001000 -0.007196)
            (0.038135 0.001000 -0.007192)
            (0.038724 0.001000 -0.007187)
            (0.039314 0.001000 -0.007180)
            (0.039907 0.001000 -0.007172)
            (0.040502 0.001000 -0.007164)
            (0.041100 0.001000 -0.007153)
            (0.041699 0.001000 -0.007142)
            (0.042300 0.001000 -0.007130)
            (0.042904 0.001000 -0.007116)
            (0.043509 0.001000 -0.007101)
            (0.044116 0.001000 -0.007086)
            (0.044725 0.001000 -0.007069)
            (0.045335 0.001000 -0.007051)
            (0.045947 0.001000 -0.007031)
            (0.046561 0.001000 -0.007011)
            (0.047176 0.001000 -0.006990)
            (0.047793 0.001000 -0.006967)
            (0.048411 0.001000 -0.006944)
            (0.049030 0.001000 -0.006920)
            (0.049650 0.001000 -0.006894)
            (0.050272 0.001000 -0.006868)
            (0.050894 0.001000 -0.006841)
            (0.051518 0.001000 -0.006812)
            (0.052142 0.001000 -0.006783)
            (0.052768 0.001000 -0.006753)
            (0.053394 0.001000 -0.006722)
            (0.054021 0.001000 -0.006690)
            (0.054649 0.001000 -0.006657)
            (0.055277 0.001000 -0.006623)
            (0.055905 0.001000 -0.006588)
            (0.056535 0.001000 -0.006553)
            (0.057164 0.001000 -0.006517)
            (0.057794 0.001000 -0.006479)
            (0.058424 0.001000 -0.006441)
            (0.059054 0.001000 -0.006403)
            (0.059685 0.001000 -0.006363)
            (0.060315 0.001000 -0.006323)
            (0.060946 0.001000 -0.006282)
            (0.061576 0.001000 -0.006241)
            (0.062206 0.001000 -0.006198)
            (0.062836 0.001000 -0.006155)
            (0.063465 0.001000 -0.006112)
            (0.064095 0.001000 -0.006067)
            (0.064723 0.001000 -0.006022)
            (0.065351 0.001000 -0.005977)
            (0.065979 0.001000 -0.005931)
            (0.066606 0.001000 -0.005884)
            (0.067232 0.001000 -0.005837)
            (0.067858 0.001000 -0.005789)
            (0.068482 0.001000 -0.005740)
            (0.069106 0.001000 -0.005691)
            (0.069728 0.001000 -0.005642)
            (0.070350 0.001000 -0.005592)
            (0.070970 0.001000 -0.005541)
            (0.071589 0.001000 -0.005491)
            (0.072207 0.001000 -0.005439)
            (0.072824 0.001000 -0.005387)
            (0.073439 0.001000 -0.005335)
            (0.074053 0.001000 -0.005283)
            (0.074665 0.001000 -0.005230)
            (0.075275 0.001000 -0.005176)
            (0.075884 0.001000 -0.005123)
            (0.076491 0.001000 -0.005068)
            (0.077096 0.001000 -0.005014)
            (0.077700 0.001000 -0.004959)
            (0.078301 0.001000 -0.004904)
            (0.078900 0.001000 -0.004849)
            (0.079498 0.001000 -0.004794)
            (0.080093 0.001000 -0.004738)
            (0.080686 0.001000 -0.004682)
            (0.081276 0.001000 -0.004625)
            (0.081865 0.001000 -0.004569)
            (0.082450 0.001000 -0.004512)
            (0.083034 0.001000 -0.004455)
            (0.083615 0.001000 -0.004398)
            (0.084193 0.001000 -0.004341)
            (0.084768 0.001000 -0.004284)
            (0.085341 0.001000 -0.004226)
            (0.085911 0.001000 -0.004169)
            (0.086478 0.001000 -0.004111)
            (0.087043 0.001000 -0.004053)
            (0.087604 0.001000 -0.003996)
            (0.088162 0.001000 -0.003938)
            (0.088717 0.001000 -0.003880)
            (0.089269 0.001000 -0.003822)
            (0.089818 0.001000 -0.003764)
            (0.090363 0.001000 -0.003706)
            (0.090905 0.001000 -0.003648)
            (0.091444 0.001000 -0.003590)
            (0.091979 0.001000 -0.003532)
            (0.092511 0.001000 -0.003474)
            (0.093039 0.001000 -0.003416)
            (0.093563 0.001000 -0.003358)
            (0.094084 0.001000 -0.003301)
            (0.094601 0.001000 -0.003243)
            (0.095114 0.001000 -0.003186)
            (0.095623 0.001000 -0.003128)
            (0.096128 0.001000 -0.003071)
            (0.096630 0.001000 -0.003014)
            (0.097127 0.001000 -0.002957)
            (0.097620 0.001000 -0.002901)
            (0.098109 0.001000 -0.002844)
            (0.098594 0.001000 -0.002788)
            (0.099075 0.001000 -0.002732)
            (0.099551 0.001000 -0.002676)
            (0.100023 0.001000 -0.002620)
            (0.100490 0.001000 -0.002565)
            (0.100953 0.001000 -0.002510)
            (0.101412 0.001000 -0.002455)
            (0.101866 0.001000 -0.002400)
            (0.102315 0.001000 -0.002346)
            (0.102759 0.001000 -0.002292)
            (0.103199 0.001000 -0.002239)
            (0.103634 0.001000 -0.002185)
            (0.104065 0.001000 -0.002133)
            (0.104490 0.001000 -0.002080)
            (0.104911 0.001000 -0.002028)
            (0.105326 0.001000 -0.001976)
            (0.105737 0.001000 -0.001925)
            (0.106142 0.001000 -0.001874)
            (0.106543 0.001000 -0.001823)
            (0.106938 0.001000 -0.001773)
            (0.107328 0.001000 -0.001724)
            (0.107713 0.001000 -0.001675)
            (0.108093 0.001000 -0.001626)
            (0.108467 0.001000 -0.001578)
            (0.108836 0.001000 -0.001530)
            (0.109199 0.001000 -0.001483)
            (0.109557 0.001000 -0.001437)
            (0.109910 0.001000 -0.001391)
            (0.110257 0.001000 -0.001345)
            (0.110599 0.001000 -0.001300)
            (0.110935 0.001000 -0.001256)
            (0.111265 0.001000 -0.001212)
            (0.111590 0.001000 -0.001169)
            (0.111909 0.001000 -0.001127)
            (0.112222 0.001000 -0.001085)
            (0.112530 0.001000 -0.001044)
            (0.112831 0.001000 -0.001003)
            (0.113127 0.001000 -0.000963)
            (0.113417 0.001000 -0.000924)
            (0.113702 0.001000 -0.000885)
            (0.113980 0.001000 -0.000847)
            (0.114252 0.001000 -0.000810)
            (0.114518 0.001000 -0.000774)
            (0.114778 0.001000 -0.000738)
            (0.115033 0.001000 -0.000703)
            (0.115281 0.001000 -0.000669)
            (0.115523 0.001000 -0.000635)
            (0.115759 0.001000 -0.000603)
            (0.115988 0.001000 -0.000571)
            (0.116212 0.001000 -0.000540)
            (0.116429 0.001000 -0.000509)
            (0.116640 0.001000 -0.000480)
            (0.116845 0.001000 -0.000451)
            (0.117044 0.001000 -0.000423)
            (0.117236 0.001000 -0.000396)
            (0.117422 0.001000 -0.000370)
            (0.117602 0.001000 -0.000344)
            (0.117775 0.001000 -0.000320)
            (0.117942 0.001000 -0.000296)
            (0.118102 0.001000 -0.000273)
            (0.118257 0.001000 -0.000251)
            (0.118404 0.001000 -0.000230)
            (0.118545 0.001000 -0.000210)
            (0.118680 0.001000 -0.000190)
            (0.118808 0.001000 -0.000172)
            (0.118930 0.001000 -0.000155)
            (0.119045 0.001000 -0.000138)
            (0.119154 0.001000 -0.000122)
            (0.119256 0.001000 -0.000108)
            (0.119352 0.001000 -0.000094)
            (0.119441 0.001000 -0.000081)
            (0.119524 0.001000 -0.000069)
            (0.119600 0.001000 -0.000058)
            (0.119669 0.001000 -0.000048)
            (0.119732 0.001000 -0.000039)
            (0.119788 0.001000 -0.000031)
            (0.119838 0.001000 -0.000024)
            (0.119881 0.001000 -0.000017)
            (0.119917 0.001000 -0.000012)
            (0.119947 0.001000 -0.000008)
            (0.119970 0.001000 -0.000004)
            (0.119987 0.001000 -0.000002)
            (0.119997 0.001000 -0.000000)
        ) 
    spline 16 17 
        ( 
            (0.000003 -0.001000 0.000112)
            (0.000013 -0.001000 0.000224)
            (0.000030 -0.001000 0.000335)
            (0.000053 -0.001000 0.000445)
            (0.000083 -0.001000 0.000555)
            (0.000119 -0.001000 0.000665)
            (0.000162 -0.001000 0.000774)
            (0.000212 -0.001000 0.000882)
            (0.000268 -0.001000 0.000990)
            (0.000331 -0.001000 0.001097)
            (0.000400 -0.001000 0.001204)
            (0.000476 -0.001000 0.001310)
            (0.000559 -0.001000 0.001416)
            (0.000648 -0.001000 0.001521)
            (0.000744 -0.001000 0.001626)
            (0.000846 -0.001000 0.001730)
            (0.000955 -0.001000 0.001833)
            (0.001070 -0.001000 0.001936)
            (0.001192 -0.001000 0.002038)
            (0.001320 -0.001000 0.002139)
            (0.001455 -0.001000 0.002240)
            (0.001596 -0.001000 0.002340)
            (0.001743 -0.001000 0.002440)
            (0.001898 -0.001000 0.002538)
            (0.002058 -0.001000 0.002637)
            (0.002225 -0.001000 0.002734)
            (0.002398 -0.001000 0.002831)
            (0.002578 -0.001000 0.002927)
            (0.002764 -0.001000 0.003022)
            (0.002956 -0.001000 0.003117)
            (0.003155 -0.001000 0.003210)
            (0.003360 -0.001000 0.003303)
            (0.003571 -0.001000 0.003396)
            (0.003788 -0.001000 0.003487)
            (0.004012 -0.001000 0.003578)
            (0.004241 -0.001000 0.003667)
            (0.004477 -0.001000 0.003756)
            (0.004719 -0.001000 0.003845)
            (0.004967 -0.001000 0.003932)
            (0.005222 -0.001000 0.004018)
            (0.005482 -0.001000 0.004104)
            (0.005748 -0.001000 0.004188)
            (0.006020 -0.001000 0.004272)
            (0.006298 -0.001000 0.004354)
            (0.006583 -0.001000 0.004436)
            (0.006873 -0.001000 0.004517)
            (0.007169 -0.001000 0.004597)
            (0.007470 -0.001000 0.004676)
            (0.007778 -0.001000 0.004753)
            (0.008091 -0.001000 0.004830)
            (0.008410 -0.001000 0.004906)
            (0.008735 -0.001000 0.004981)
            (0.009065 -0.001000 0.005054)
            (0.009401 -0.001000 0.005127)
            (0.009743 -0.001000 0.005198)
            (0.010090 -0.001000 0.005269)
            (0.010443 -0.001000 0.005338)