/*--------------------------------*- C++ -*----------------------------------*\ 
| =========                 |                                                 | 
| \\      /  F ield         | OpenFOAM: The Open Source CFD Toolbox           | 
|  \\    /   O peration     | Version:  2.1.0                                 | 
|   \\  /    A nd           | Web:      www.OpenFOAM.com                      | 
|    \\/     M anipulation  |                                                 | 
\*---------------------------------------------------------------------------*/ 
FoamFile                                                                        
{                                                                               
    version     2.0;                                                            
    format      ascii;                                                          
    class       dictionary;                                                     
    object      blockMeshDict;                                                  
}                                                                               
// * * * * * * * * * * * * * * * * * * * * * * * * * * * * * * * * * * * * * // 

convertToMeters 1.000000; 

vertices 
( 
    (-0.111214 0.001000 0.022544)
    (0.036524 0.001000 0.150000)
    (0.117608 0.001000 0.150000)
    (0.400000 0.001000 0.150000)
    (0.000000 0.001000 0.000000)
    (0.036524 0.001000 -0.000057)
    (0.033663 0.001000 -0.014171)
    (0.117608 0.001000 -0.023840)
    (0.400000 0.001000 -0.023840)
    (0.033663 0.001000 -0.150000)
    (0.117608 0.001000 -0.150000)
    (0.400000 0.001000 -0.150000)
    (-0.111214 -0.001000 0.022544)
    (0.036524 -0.001000 0.150000)
    (0.117608 -0.001000 0.150000)
    (0.400000 -0.001000 0.150000)
    (0.000000 -0.001000 0.000000)
    (0.036524 -0.001000 -0.000057)
    (0.033663 -0.001000 -0.014171)
    (0.117608 -0.001000 -0.023840)
    (0.400000 -0.001000 -0.023840)
    (0.033663 -0.001000 -0.150000)
    (0.117608 -0.001000 -0.150000)
    (0.400000 -0.001000 -0.150000)
); 

blocks 
( 
    hex (4 5 1 0 16 17 13 12)     (80 300 1) edgeGrading (1 1 1 1 1 1 1 1 1 1 1 1) 
    hex (5 7 2 1 17 19 14 13)     (189 300 1) simpleGrading (1 1 1) 
    hex (7 8 3 2 19 20 15 14)     (160 300 1) simpleGrading (1 1 1) 
    hex (16 18 21 12 4 6 9 0)     (80 300 1) edgeGrading (1 1 1 1 1 1 1 1 1 1 1 1) 
    hex (18 19 22 21 6 7 10 9)    (189 300 1) simpleGrading (1 1 1) 
    hex (19 20 23 22 7 8 11 10)   (160 300 1) simpleGrading (1 1 1) 
); 

edges 
( 
    spline 4 5 
        ( 
            (0.000026 0.001000 0.000109) 
            (0.000057 0.001000 0.000217) 
            (0.000096 0.001000 0.000322) 
            (0.000140 0.001000 0.000426) 
            (0.000191 0.001000 0.000528) 
            (0.000249 0.001000 0.000628) 
            (0.000313 0.001000 0.000726) 
            (0.000383 0.001000 0.000822) 
            (0.000459 0.001000 0.000917) 
            (0.000542 0.001000 0.001010) 
            (0.000632 0.001000 0.001101) 
            (0.000727 0.001000 0.001190) 
            (0.000829 0.001000 0.001277) 
            (0.000937 0.001000 0.001362) 
            (0.001052 0.001000 0.001445) 
            (0.001173 0.001000 0.001527) 
            (0.001300 0.001000 0.001607) 
            (0.001433 0.001000 0.001684) 
            (0.001573 0.001000 0.001760) 
            (0.001719 0.001000 0.001834) 
            (0.001871 0.001000 0.001906) 
            (0.002029 0.001000 0.001976) 
            (0.002193 0.001000 0.002045) 
            (0.002364 0.001000 0.002111) 
            (0.002541 0.001000 0.002175) 
            (0.002724 0.001000 0.002237) 
            (0.002913 0.001000 0.002298) 
            (0.003108 0.001000 0.002356) 
            (0.003309 0.001000 0.002413) 
            (0.003516 0.001000 0.002467) 
            (0.003730 0.001000 0.002520) 
            (0.003949 0.001000 0.002570) 
            (0.004174 0.001000 0.002619) 
            (0.004405 0.001000 0.002665) 
            (0.004642 0.001000 0.002709) 
            (0.004885 0.001000 0.002752) 
            (0.005134 0.001000 0.002792) 
            (0.005389 0.001000 0.002830) 
            (0.005649 0.001000 0.002867) 
            (0.005916 0.001000 0.002901) 
            (0.006188 0.001000 0.002933) 
            (0.006465 0.001000 0.002963) 
            (0.006749 0.001000 0.002991) 
            (0.007038 0.001000 0.003016) 
            (0.007333 0.001000 0.003040) 
            (0.007633 0.001000 0.003062) 
            (0.007939 0.001000 0.003081) 
            (0.008250 0.001000 0.003098) 
            (0.008567 0.001000 0.003113) 
            (0.008889 0.001000 0.003126) 
            (0.009217 0.001000 0.003137) 
            (0.009550 0.001000 0.003146) 
            (0.009889 0.001000 0.003153) 
            (0.010232 0.001000 0.003157) 
            (0.010581 0.001000 0.003159) 
            (0.010936 0.001000 0.003159) 
            (0.011295 0.001000 0.003157) 
            (0.011659 0.001000 0.003153) 
            (0.012029 0.001000 0.003146) 
            (0.012404 0.001000 0.003137) 
            (0.012783 0.001000 0.003126) 
            (0.013168 0.001000 0.003113) 
            (0.013558 0.001000 0.003098) 
            (0.013952 0.001000 0.003080) 
            (0.014351 0.001000 0.003060) 
            (0.014756 0.001000 0.003038) 
            (0.015164 0.001000 0.003014) 
            (0.015578 0.001000 0.002988) 
            (0.015996 0.001000 0.002959) 
            (0.016419 0.001000 0.002928) 
            (0.016846 0.001000 0.002895) 
            (0.017278 0.001000 0.002860) 
            (0.017715 0.001000 0.002823) 
            (0.018155 0.001000 0.002783) 
            (0.018600 0.001000 0.002741) 
            (0.019050 0.001000 0.002697) 
            (0.019504 0.001000 0.002651) 
            (0.019962 0.001000 0.002602) 
            (0.020424 0.001000 0.002551) 
            (0.020890 0.001000 0.002499) 
            (0.021360 0.001000 0.002443) 
            (0.021835 0.001000 0.002386) 
            (0.022313 0.001000 0.002327) 
            (0.022795 0.001000 0.002265) 
            (0.023281 0.001000 0.002202) 
            (0.023771 0.001000 0.002136) 
            (0.024265 0.001000 0.002068) 
            (0.024762 0.001000 0.001998) 
            (0.025263 0.001000 0.001926) 
            (0.025767 0.001000 0.001851) 
            (0.026276 0.001000 0.001775) 
            (0.026787 0.001000 0.001696) 
            (0.027302 0.001000 0.001616) 
            (0.027820 0.001000 0.001533) 
            (0.028342 0.001000 0.001448) 
            (0.028867 0.001000 0.001362) 
            (0.029395 0.001000 0.001273) 
            (0.029926 0.001000 0.001182) 
            (0.030460 0.001000 0.001090) 
            (0.030998 0.001000 0.000995) 
            (0.031538 0.001000 0.000898) 
            (0.032081 0.001000 0.000800) 
            (0.032627 0.001000 0.000699) 
            (0.033176 0.001000 0.000597) 
            (0.033728 0.001000 0.000493) 
            (0.034282 0.001000 0.000386) 
            (0.034839 0.001000 0.000278) 
            (0.035398 0.001000 0.000169) 
            (0.035960 0.001000 0.000057) 
        ) 
    spline 5 7 
        ( 
            (0.037091 0.001000 -0.000172)
            (0.037660 0.001000 -0.000289)
            (0.038231 0.001000 -0.000407)
            (0.038804 0.001000 -0.000528)
            (0.039380 0.001000 -0.000650)
            (0.039957 0.001000 -0.000773)
            (0.040537 0.001000 -0.000899)
            (0.041118 0.001000 -0.001026)
            (0.041702 0.001000 -0.001154)
            (0.042287 0.001000 -0.001285)
            (0.042874 0.001000 -0.001416)
            (0.043462 0.001000 -0.001549)
            (0.044052 0.001000 -0.001684)
            (0.044644 0.001000 -0.001820)
            (0.045238 0.001000 -0.001958)
            (0.045832 0.001000 -0.002097)
            (0.046428 0.001000 -0.002237)
            (0.047026 0.001000 -0.002379)
            (0.047624 0.001000 -0.002522)
            (0.048224 0.001000 -0.002666)
            (0.048825 0.001000 -0.002812)
            (0.049427 0.001000 -0.002959)
            (0.050030 0.001000 -0.003107)
            (0.050634 0.001000 -0.003256)
            (0.051239 0.001000 -0.003407)
            (0.051844 0.001000 -0.003559)
            (0.052451 0.001000 -0.003711)
            (0.053058 0.001000 -0.003865)
            (0.053665 0.001000 -0.004020)
            (0.054273 0.001000 -0.004176)
            (0.054882 0.001000 -0.004333)
            (0.055491 0.001000 -0.004491)
            (0.056100 0.001000 -0.004650)
            (0.056710 0.001000 -0.004810)
            (0.057319 0.001000 -0.004970)
            (0.057929 0.001000 -0.005132)
            (0.058539 0.001000 -0.005294)
            (0.059149 0.001000 -0.005457)
            (0.059759 0.001000 -0.005621)
            (0.060369 0.001000 -0.005786)
            (0.060979 0.001000 -0.005951)
            (0.061588 0.001000 -0.006117)
            (0.062197 0.001000 -0.006284)
            (0.062806 0.001000 -0.006451)
            (0.063414 0.001000 -0.006619)
            (0.064022 0.001000 -0.006787)
            (0.064630 0.001000 -0.006956)
            (0.065236 0.001000 -0.007126)
            (0.065842 0.001000 -0.007296)
            (0.066447 0.001000 -0.007466)
            (0.067052 0.001000 -0.007637)
            (0.067655 0.001000 -0.007808)
            (0.068257 0.001000 -0.007980)
            (0.068859 0.001000 -0.008151)
            (0.069459 0.001000 -0.008324)
            (0.070059 0.001000 -0.008496)
            (0.070657 0.001000 -0.008669)
            (0.071253 0.001000 -0.008842)
            (0.071849 0.001000 -0.009015)
            (0.072443 0.001000 -0.009188)
            (0.073035 0.001000 -0.009361)
            (0.073626 0.001000 -0.009535)
            (0.074215 0.001000 -0.009708)
            (0.074803 0.001000 -0.009882)
            (0.075389 0.001000 -0.010055)
            (0.075973 0.001000 -0.010229)
            (0.076556 0.001000 -0.010403)
            (0.077136 0.001000 -0.010576)
            (0.077715 0.001000 -0.010749)
            (0.078291 0.001000 -0.010923)
            (0.078865 0.001000 -0.011096)
            (0.079438 0.001000 -0.011269)
            (0.080007 0.001000 -0.011441)
            (0.080575 0.001000 -0.011614)
            (0.081140 0.001000 -0.011786)
            (0.081703 0.001000 -0.011958)
            (0.082264 0.001000 -0.012130)
            (0.082822 0.001000 -0.012301)
            (0.083377 0.001000 -0.012472)
            (0.083930 0.001000 -0.012642)
            (0.084480 0.001000 -0.012812)
            (0.085027 0.001000 -0.012982)
            (0.085571 0.001000 -0.013151)
            (0.086113 0.001000 -0.013320)
            (0.086651 0.001000 -0.013488)
            (0.087187 0.001000 -0.013656)
            (0.087720 0.001000 -0.013823)
            (0.088249 0.001000 -0.013989)
            (0.088775 0.001000 -0.014155)
            (0.089298 0.001000 -0.014320)
            (0.089818 0.001000 -0.014485)
            (0.090334 0.001000 -0.014649)
            (0.090847 0.001000 -0.014812)
            (0.091357 0.001000 -0.014974)
            (0.091863 0.001000 -0.015136)
            (0.092365 0.001000 -0.015297)
            (0.092864 0.001000 -0.015457)
            (0.093359 0.001000 -0.015616)
            (0.093851 0.001000 -0.015774)
            (0.094339 0.001000 -0.015931)
            (0.094822 0.001000 -0.016088)
            (0.095302 0.001000 -0.016243)
            (0.095779 0.001000 -0.016398)
            (0.096251 0.001000 -0.016551)
            (0.096719 0.001000 -0.016704)
            (0.097183 0.001000 -0.016855)
            (0.097642 0.001000 -0.017006)
            (0.098098 0.001000 -0.017155)
            (0.098550 0.001000 -0.017303)
            (0.098997 0.001000 -0.017451)
            (0.099439 0.001000 -0.017597)
            (0.099878 0.001000 -0.017741)
            (0.100312 0.001000 -0.017885)
            (0.100741 0.001000 -0.018027)
            (0.101166 0.001000 -0.018169)
            (0.101587 0.001000 -0.018309)
            (0.102003 0.001000 -0.018447)
            (0.102414 0.001000 -0.018584)
            (0.102821 0.001000 -0.018720)
            (0.103222 0.001000 -0.018855)
            (0.103619 0.001000 -0.018988)
            (0.104011 0.001000 -0.019120)
            (0.104399 0.001000 -0.019251)
            (0.104781 0.001000 -0.019380)
            (0.105159 0.001000 -0.019507)
            (0.105531 0.001000 -0.019633)
            (0.105899 0.001000 -0.019758)
            (0.106261 0.001000 -0.019881)
            (0.106618 0.001000 -0.020002)
            (0.106970 0.001000 -0.020122)
            (0.107317 0.001000 -0.020241)
            (0.107659 0.001000 -0.020358)
            (0.107995 0.001000 -0.020473)
            (0.108327 0.001000 -0.020586)
            (0.108653 0.001000 -0.020698)
            (0.108973 0.001000 -0.020808)
            (0.109288 0.001000 -0.020917)
            (0.109598 0.001000 -0.021023)
            (0.109902 0.001000 -0.021129)
            (0.110201 0.001000 -0.021232)
            (0.110494 0.001000 -0.021333)
            (0.110782 0.001000 -0.021433)
            (0.111064 0.001000 -0.021531)
            (0.111340 0.001000 -0.021627)
            (0.111611 0.001000 -0.021721)
            (0.111876 0.001000 -0.021814)
            (0.112136 0.001000 -0.021904)
            (0.112389 0.001000 -0.021993)
            (0.112637 0.001000 -0.022080)
            (0.112879 0.001000 -0.022164)
            (0.113116 0.001000 -0.022247)
            (0.113346 0.001000 -0.022328)
            (0.113571 0.001000 -0.022407)
            (0.113790 0.001000 -0.022484)
            (0.114003 0.001000 -0.022559)
            (0.114210 0.001000 -0.022632)
            (0.114411 0.001000 -0.022703)
            (0.114606 0.001000 -0.022772)
            (0.114795 0.001000 -0.022839)
            (0.114978 0.001000 -0.022903)
            (0.115155 0.001000 -0.022966)
            (0.115326 0.001000 -0.023027)
            (0.115491 0.001000 -0.023085)
            (0.115650 0.001000 -0.023141)
            (0.115802 0.001000 -0.023196)
            (0.115949 0.001000 -0.023248)
            (0.116090 0.001000 -0.023298)
            (0.116224 0.001000 -0.023346)
            (0.116352 0.001000 -0.023391)
            (0.116474 0.001000 -0.023435)
            (0.116590 0.001000 -0.023476)
            (0.116700 0.001000 -0.023515)
            (0.116803 0.001000 -0.023552)
            (0.116901 0.001000 -0.023587)
            (0.116992 0.001000 -0.023620)
            (0.117076 0.001000 -0.023650)
            (0.117155 0.001000 -0.023678)
            (0.117227 0.001000 -0.023704)
            (0.117293 0.001000 -0.023728)
            (0.117353 0.001000 -0.023749)
            (0.117406 0.001000 -0.023768)
            (0.117454 0.001000 -0.023785)
            (0.117495 0.001000 -0.023800)
            (0.117529 0.001000 -0.023812)
            (0.117558 0.001000 -0.023822)
            (0.117580 0.001000 -0.023830)
            (0.117595 0.001000 -0.023836)
            (0.117605 0.001000 -0.023839)
        ) 
    spline 4 6 
        ( 
            (-0.000019 0.001000 -0.000110)
            (-0.000031 0.001000 -0.000222)
            (-0.000037 0.001000 -0.000334)
            (-0.000037 0.001000 -0.000447)
            (-0.000029 0.001000 -0.000561)
            (-0.000015 0.001000 -0.000675)
            (0.000005 0.001000 -0.000790)
            (0.000032 0.001000 -0.000907)
            (0.000066 0.001000 -0.001023)
            (0.000106 0.001000 -0.001141)
            (0.000153 0.001000 -0.001260)
            (0.000206 0.001000 -0.001379)
            (0.000266 0.001000 -0.001499)
            (0.000333 0.001000 -0.001620)
            (0.000406 0.001000 -0.001741)
            (0.000485 0.001000 -0.001863)
            (0.000571 0.001000 -0.001986)
            (0.000664 0.001000 -0.002110)
            (0.000763 0.001000 -0.002234)
            (0.000869 0.001000 -0.002359)
            (0.000981 0.001000 -0.002484)
            (0.001099 0.001000 -0.002610)
            (0.001224 0.001000 -0.002737)
            (0.001355 0.001000 -0.002865)
            (0.001493 0.001000 -0.002993)
            (0.001637 0.001000 -0.003122)
            (0.001788 0.001000 -0.003251)
            (0.001945 0.001000 -0.003381)
            (0.002108 0.001000 -0.003511)
            (0.002278 0.001000 -0.003642)
            (0.002454 0.001000 -0.003773)
            (0.002636 0.001000 -0.003905)
            (0.002825 0.001000 -0.004037)
            (0.003020 0.001000 -0.004170)
            (0.003221 0.001000 -0.004303)
            (0.003428 0.001000 -0.004437)
            (0.003642 0.001000 -0.004571)
            (0.003861 0.001000 -0.004705)
            (0.004087 0.001000 -0.004840)
            (0.004319 0.001000 -0.004975)
            (0.004557 0.001000 -0.005111)
            (0.004801 0.001000 -0.005247)
            (0.005052 0.001000 -0.005383)
            (0.005308 0.001000 -0.005519)
            (0.005570 0.001000 -0.005656)
            (0.005838 0.001000 -0.005792)
            (0.006112 0.001000 -0.005929)
            (0.006392 0.001000 -0.006066)
            (0.006678 0.001000 -0.006204)
            (0.006970 0.001000 -0.006341)
            (0.007268 0.001000 -0.006479)
            (0.007571 0.001000 -0.006617)
            (0.007880 0.001000 -0.006754)
            (0.008195 0.001000 -0.006892)
            (0.008516 0.001000 -0.007030)
            (0.008842 0.001000 -0.007168)
            (0.009174 0.001000 -0.007306)
            (0.009511 0.001000 -0.007444)
            (0.009854 0.001000 -0.007582)
            (0.010203 0.001000 -0.007720)
            (0.010557 0.001000 -0.007858)
            (0.010916 0.001000 -0.007995)
            (0.011281 0.001000 -0.008133)
            (0.011651 0.001000 -0.008270)
            (0.012027 0.001000 -0.008408)
            (0.012408 0.001000 -0.008545)
            (0.012793 0.001000 -0.008682)
            (0.013185 0.001000 -0.008818)
            (0.013581 0.001000 -0.008955)
            (0.013982 0.001000 -0.009091)
            (0.014389 0.001000 -0.009227)
            (0.014801 0.001000 -0.009363)
            (0.015217 0.001000 -0.009498)
            (0.015638 0.001000 -0.009633)
            (0.016065 0.001000 -0.009768)
            (0.016496 0.001000 -0.009902)
            (0.016932 0.001000 -0.010036)
            (0.017373 0.001000 -0.010170)
            (0.017818 0.001000 -0.010303)
            (0.018268 0.001000 -0.010436)
            (0.018723 0.001000 -0.010569)
            (0.019182 0.001000 -0.010701)
            (0.019645 0.001000 -0.010832)
            (0.020114 0.001000 -0.010963)
            (0.020586 0.001000 -0.011094)
            (0.021063 0.001000 -0.011224)
            (0.021544 0.001000 -0.011354)
            (0.022029 0.001000 -0.011483)
            (0.022519 0.001000 -0.011611)
            (0.023013 0.001000 -0.011739)
            (0.023510 0.001000 -0.011867)
            (0.024012 0.001000 -0.011994)
            (0.024518 0.001000 -0.012120)
            (0.025027 0.001000 -0.012246)
            (0.025541 0.001000 -0.012371)
            (0.026058 0.001000 -0.012496)
            (0.026579 0.001000 -0.012619)
            (0.027103 0.001000 -0.012743)
            (0.027632 0.001000 -0.012865)
            (0.028163 0.001000 -0.012987)
            (0.028699 0.001000 -0.013109)
            (0.029237 0.001000 -0.013230)
            (0.029779 0.001000 -0.013350)
            (0.030325 0.001000 -0.013469)
            (0.030873 0.001000 -0.013588)
            (0.031425 0.001000 -0.013706)
            (0.031980 0.001000 -0.013823)
            (0.032538 0.001000 -0.013940)
            (0.033099 0.001000 -0.014056)
        ) 
    spline 6 7 
        ( 
            (0.034230 0.001000 -0.014286)
            (0.034799 0.001000 -0.014399)
            (0.035371 0.001000 -0.014513)
            (0.035946 0.001000 -0.014625)
            (0.036524 0.001000 -0.014737)
            (0.037104 0.001000 -0.014848)
            (0.037687 0.001000 -0.014958)
            (0.038272 0.001000 -0.015067)
            (0.038859 0.001000 -0.015176)
            (0.039449 0.001000 -0.015284)
            (0.040041 0.001000 -0.015391)
            (0.040635 0.001000 -0.015498)
            (0.041231 0.001000 -0.015604)
            (0.041829 0.001000 -0.015709)
            (0.042429 0.001000 -0.015813)
            (0.043031 0.001000 -0.015917)
            (0.043635 0.001000 -0.016020)
            (0.044240 0.001000 -0.016122)
            (0.044847 0.001000 -0.016223)
            (0.045456 0.001000 -0.016324)
            (0.046066 0.001000 -0.016423)
            (0.046678 0.001000 -0.016522)
            (0.047291 0.001000 -0.016621)
            (0.047905 0.001000 -0.016718)
            (0.048521 0.001000 -0.016815)
            (0.049138 0.001000 -0.016911)
            (0.049755 0.001000 -0.017007)
            (0.050374 0.001000 -0.017101)
            (0.050994 0.001000 -0.017195)
            (0.051615 0.001000 -0.017289)
            (0.052237 0.001000 -0.017381)
            (0.052859 0.001000 -0.017473)
            (0.053482 0.001000 -0.017564)
            (0.054106 0.001000 -0.017654)
            (0.054730 0.001000 -0.017743)
            (0.055355 0.001000 -0.017832)
            (0.055980 0.001000 -0.017920)
            (0.056605 0.001000 -0.018007)
            (0.057231 0.001000 -0.018094)
            (0.057857 0.001000 -0.018180)
            (0.058483 0.001000 -0.018265)
            (0.059109 0.001000 -0.018349)
            (0.059735 0.001000 -0.018433)
            (0.060360 0.001000 -0.018516)
            (0.060986 0.001000 -0.018598)
            (0.061612 0.001000 -0.018680)
            (0.062237 0.001000 -0.018761)
            (0.062861 0.001000 -0.018841)
            (0.063486 0.001000 -0.018920)
            (0.064109 0.001000 -0.018999)
            (0.064732 0.001000 -0.019077)
            (0.065355 0.001000 -0.019154)
            (0.065977 0.001000 -0.019231)
            (0.066598 0.001000 -0.019307)
            (0.067218 0.001000 -0.019382)
            (0.067837 0.001000 -0.019457)
            (0.068455 0.001000 -0.019531)
            (0.069072 0.001000 -0.019604)
            (0.069687 0.001000 -0.019676)
            (0.070302 0.001000 -0.019748)
            (0.070915 0.001000 -0.019819)
            (0.071527 0.001000 -0.019889)
            (0.072138 0.001000 -0.019959)
            (0.072746 0.001000 -0.020028)
            (0.073354 0.001000 -0.020096)
            (0.073959 0.001000 -0.020164)
            (0.074563 0.001000 -0.020231)
            (0.075166 0.001000 -0.020297)
            (0.075766 0.001000 -0.020363)
            (0.076364 0.001000 -0.020428)
            (0.076961 0.001000 -0.020492)
            (0.077555 0.001000 -0.020555)
            (0.078147 0.001000 -0.020618)
            (0.078737 0.001000 -0.020680)
            (0.079325 0.001000 -0.020742)
            (0.079910 0.001000 -0.020803)
            (0.080493 0.001000 -0.020863)
            (0.081074 0.001000 -0.020922)
            (0.081652 0.001000 -0.020981)
            (0.082228 0.001000 -0.021039)
            (0.082800 0.001000 -0.021097)
            (0.083371 0.001000 -0.021154)
            (0.083938 0.001000 -0.021210)
            (0.084502 0.001000 -0.021265)
            (0.085064 0.001000 -0.021320)
            (0.085622 0.001000 -0.021374)
            (0.086178 0.001000 -0.021428)
            (0.086730 0.001000 -0.021481)
            (0.087280 0.001000 -0.021533)
            (0.087826 0.001000 -0.021584)
            (0.088369 0.001000 -0.021635)
            (0.088908 0.001000 -0.021685)
            (0.089444 0.001000 -0.021735)
            (0.089976 0.001000 -0.021784)
            (0.090506 0.001000 -0.021832)
            (0.091031 0.001000 -0.021880)
            (0.091553 0.001000 -0.021927)
            (0.092071 0.001000 -0.021973)
            (0.092585 0.001000 -0.022018)
            (0.093096 0.001000 -0.022063)
            (0.093602 0.001000 -0.022108)
            (0.094105 0.001000 -0.022151)
            (0.094603 0.001000 -0.022195)
            (0.095098 0.001000 -0.022237)
            (0.095589 0.001000 -0.022279)
            (0.096075 0.001000 -0.022320)
            (0.096557 0.001000 -0.022360)
            (0.097035 0.001000 -0.022400)
            (0.097508 0.001000 -0.022439)
            (0.097978 0.001000 -0.022478)
            (0.098442 0.001000 -0.022516)
            (0.098902 0.001000 -0.022553)
            (0.099358 0.001000 -0.022590)
            (0.099809 0.001000 -0.022626)
            (0.100256 0.001000 -0.022662)
            (0.100697 0.001000 -0.022697)
            (0.101134 0.001000 -0.022731)
            (0.101567 0.001000 -0.022764)
            (0.101994 0.001000 -0.022798)
            (0.102417 0.001000 -0.022830)
            (0.102834 0.001000 -0.022862)
            (0.103247 0.001000 -0.022893)
            (0.103654 0.001000 -0.022924)
            (0.104057 0.001000 -0.022954)
            (0.104454 0.001000 -0.022983)
            (0.104846 0.001000 -0.023012)
            (0.105233 0.001000 -0.023041)
            (0.105615 0.001000 -0.023068)
            (0.105991 0.001000 -0.023096)
            (0.106362 0.001000 -0.023122)
            (0.106728 0.001000 -0.023148)
            (0.107088 0.001000 -0.023174)
            (0.107443 0.001000 -0.023199)
            (0.107792 0.001000 -0.023223)
            (0.108136 0.001000 -0.023247)
            (0.108474 0.001000 -0.023270)
            (0.108806 0.001000 -0.023293)
            (0.109133 0.001000 -0.023315)
            (0.109454 0.001000 -0.023337)
            (0.109770 0.001000 -0.023358)
            (0.110079 0.001000 -0.023379)
            (0.110383 0.001000 -0.023399)
            (0.110681 0.001000 -0.023419)
            (0.110973 0.001000 -0.023438)
            (0.111259 0.001000 -0.023457)
            (0.111539 0.001000 -0.023475)
            (0.111814 0.001000 -0.023493)
            (0.112082 0.001000 -0.023510)
            (0.112344 0.001000 -0.023526)
            (0.112600 0.001000 -0.023543)
            (0.112850 0.001000 -0.023558)
            (0.113094 0.001000 -0.023574)
            (0.113331 0.001000 -0.023588)
            (0.113563 0.001000 -0.023603)
            (0.113788 0.001000 -0.023617)
            (0.114007 0.001000 -0.023630)
            (0.114220 0.001000 -0.023643)
            (0.114427 0.001000 -0.023655)
            (0.114627 0.001000 -0.023668)
            (0.114821 0.001000 -0.023679)
            (0.115008 0.001000 -0.023690)
            (0.115189 0.001000 -0.023701)
            (0.115364 0.001000 -0.023711)
            (0.115532 0.001000 -0.023721)
            (0.115694 0.001000 -0.023731)
            (0.115849 0.001000 -0.023740)
            (0.115998 0.001000 -0.023749)
            (0.116141 0.001000 -0.023757)
            (0.116277 0.001000 -0.023765)
            (0.116406 0.001000 -0.023772)
            (0.116529 0.001000 -0.023779)
            (0.116645 0.001000 -0.023786)
            (0.116755 0.001000 -0.023792)
            (0.116858 0.001000 -0.023798)
            (0.116954 0.001000 -0.023804)
            (0.117044 0.001000 -0.023809)
            (0.117127 0.001000 -0.023813)
            (0.117204 0.001000 -0.023818)
            (0.117274 0.001000 -0.023822)
            (0.117338 0.001000 -0.023825)
            (0.117394 0.001000 -0.023828)
            (0.117444 0.001000 -0.023831)
            (0.117488 0.001000 -0.023834)
            (0.117524 0.001000 -0.023836)
            (0.117555 0.001000 -0.023837)
            (0.117578 0.001000 -0.023839)
            (0.117595 0.001000 -0.023840)
            (0.117605 0.001000 -0.023840)
        ) 
    spline 16 17 
        ( 
            (0.000026 -0.001000 0.000109)
            (0.000057 -0.001000 0.000217)
            (0.000096 -0.001000 0.000322)
            (0.000140 -0.001000 0.000426)
            (0.000191 -0.001000 0.000528)
            (0.000249 -0.001000 0.000628)
            (0.000313 -0.001000 0.000726)
            (0.000383 -0.001000 0.000822)
            (0.000459 -0.001000 0.000917)
            (0.000542 -0.001000 0.001010)
            (0.000632 -0.001000 0.001101)
            (0.000727 -0.001000 0.001190)
            (0.000829 -0.001000 0.001277)
            (0.000937 -0.001000 0.001362)
            (0.001052 -0.001000 0.001445)
            (0.001173 -0.001000 0.001527)
            (0.001300 -0.001000 0.001607)
            (0.001433 -0.001000 0.001684)
            (0.001573 -0.001000 0.001760)
            (0.001719 -0.001000 0.001834)
            (0.001871 -0.001000 0.001906)
            (0.002029 -0.001000 0.001976)
            (0.002193 -0.001000 0.002045)
            (0.002364 -0.001000 0.002111)
            (0.002541 -0.001000 0.002175)
            (0.002724 -0.001000 0.002237)
            (0.002913 -0.001000 0.002298)
            (0.003108 -0.001000 0.002356)
            (0.003309 -0.001000 0.002413)
            (0.003516 -0.001000 0.002467)
            (0.003730 -0.001000 0.002520)
            (0.003949 -0.001000 0.002570)
            (0.004174 -0.001000 0.002619)
            (0.004405 -0.001000 0.002665)
            (0.004642 -0.001000 0.002709)
            (0.004885 -0.001000 0.002752)
            (0.005134 -0.001000 0.002792)
            (0.005389 -0.001000 0.002830)
            (0.005649 -0.001000 0.002867)
            (0.005916 -0.001000 0.002901)
            (0.006188 -0.001000 0.002933)
            (0.006465 -0.001000 0.002963)
            (0.006749 -0.001000 0.002991)
            (0.007038 -0.001000 0.003016)
            (0.007333 -0.001000 0.003040)
            (0.007633 -0.001000 0.003062)
            (0.007939 -0.001000 0.003081)
            (0.008250 -0.001000 0.003098)
            (0.008567 -0.001000 0.003113)
            (0.008889 -0.001000 0.003126)
            (0.009217 -0.001000 0.003137)
            (0.009550 -0.001000 0.003146)
            (0.009889 -0.001000 0.003153)
            (0.010232 -0.001000 0.003157)
            (0.010581 -0.001000 0.003159)