/*--------------------------------*- C++ -*----------------------------------*\
| =========                 |                                                 |
| \\      /  F ield         | OpenFOAM: The Open Source CFD Toolbox           |
|  \\    /   O peration     | Version:  2412                                  |
|   \\  /    A nd           | Website:  www.openfoam.com                      |
|    \\/     M anipulation  |                                                 |
\*---------------------------------------------------------------------------*/
FoamFile
{
    version     2.0;
    format      ascii;
    arch        "LSB;label=32;scalar=64";
    class       polyBoundaryMesh;
    location    "constant/polyMesh";
    object      boundary;
}
// * * * * * * * * * * * * * * * * * * * * * * * * * * * * * * * * * * * * * //

7
(
    inlet
    {
        type            patch;
        nFaces          0;
        startFace       128181;
    }
    outlet
    {
        type            patch;
        nFaces          300;
        startFace       128181;
    }
    topAndBottom
    {
        type            patch;
        nFaces          214;
        startFace       128481;
    }
    airfoil
    {
        type            wall;
        inGroups        1(wall);
        nFaces          58;
        startFace       128695;
    }
    defaultFaces
    {
        type            empty;
        inGroups        1(empty);
        nFaces          128700;
        startFace       128753;
    }
    procBoundary1to0
    {
        type            processor;
        inGroups        1(processor);
        nFaces          300;
        startFace       257453;
        matchTolerance  0.0001;
        transform       unknown;
        myProcNo        1;
        neighbProcNo    0;
    }
    procBoundary1to3
    {
        type            processor;
        inGroups        1(processor);
        nFaces          166;
        startFace       257753;
        matchTolerance  0.0001;
        transform       unknown;
        myProcNo        1;
        neighbProcNo    3;
    }
)

// ************************************************************************* //
