/*--------------------------------*- C++ -*----------------------------------*\
| =========                 |                                                 |
| \\      /  F ield         | OpenFOAM: The Open Source CFD Toolbox           |
|  \\    /   O peration     | Version:  2412                                  |
|   \\  /    A nd           | Website:  www.openfoam.com                      |
|    \\/     M anipulation  |                                                 |
\*---------------------------------------------------------------------------*/
FoamFile
{
    version     2.0;
    format      ascii;
    arch        "LSB;label=32;scalar=64";
    class       polyBoundaryMesh;
    location    "constant/polyMesh";
    object      boundary;
}
// * * * * * * * * * * * * * * * * * * * * * * * * * * * * * * * * * * * * * //

7
(
    inlet
    {
        type            patch;
        nFaces          0;
        startFace       128184;
    }
    outlet
    {
        type            patch;
        nFaces          300;
        startFace       128184;
    }
    topAndBottom
    {
        type            patch;
        nFaces          215;
        startFace       128484;
    }
    airfoil
    {
        type            wall;
        inGroups        1(wall);
        nFaces          51;
        startFace       128699;
    }
    defaultFaces
    {
        type            empty;
        inGroups        1(empty);
        nFaces          128700;
        startFace       128750;
    }
    procBoundary3to1
    {
        type            processor;
        inGroups        1(processor);
        nFaces          166;
        startFace       257450;
        matchTolerance  0.0001;
        transform       unknown;
        myProcNo        3;
        neighbProcNo    1;
    }
    procBoundary3to2
    {
        type            processor;
        inGroups        1(processor);
        nFaces          300;
        startFace       257616;
        matchTolerance  0.0001;
        transform       unknown;
        myProcNo        3;
        neighbProcNo    2;
    }
)

// ************************************************************************* //
